LTspice 26.0.1 for Windows
Circuit: C:\Users\afons\OneDrive - Universidade de Lisboa\UNI\Tese\LTSpice sims\EPC23102_Behavioral_Model_LTSPICE\EPC23102_Behavioral_Model_LTSPICE\combined.net
Start Time: Fri Apr 10 18:33:05 2026

.step d=0.4
solver = Normal
Maximum thread count: 12
tnom = 27
temp = 25
method = trap
Per .tran options, skipping operating point for transient analysis.

.step d=0.405

.step d=0.41

.step d=0.415

.step d=0.42

.step d=0.425

.step d=0.43

.step d=0.435

.step d=0.44

.step d=0.445

.step d=0.45

.step d=0.455

.step d=0.46

.step d=0.465

.step d=0.47

.step d=0.475

.step d=0.48

.step d=0.485

.step d=0.49

.step d=0.495

.step d=0.5

.step d=0.505

.step d=0.51

.step d=0.515

.step d=0.52

.step d=0.525

.step d=0.53

.step d=0.535

.step d=0.54

.step d=0.545

.step d=0.55

.step d=0.555

.step d=0.56

.step d=0.565

.step d=0.57

.step d=0.575

.step d=0.58

.step d=0.585

.step d=0.59

.step d=0.595

.step d=0.6

.step d=0.605

.step d=0.61

.step d=0.615

.step d=0.62

.step d=0.625

.step d=0.63

.step d=0.635

.step d=0.64

.step d=0.645

.step d=0.65

.step d=0.655

.step d=0.66

.step d=0.665

.step d=0.67

.step d=0.675

.step d=0.68

.step d=0.685

.step d=0.69

.step d=0.695

.step d=0.7
Total elapsed time: 79433.660 seconds.

Files loaded:
C:\Users\afons\OneDrive - Universidade de Lisboa\UNI\Tese\LTSpice sims\EPC23102_Behavioral_Model_LTSPICE\EPC23102_Behavioral_Model_LTSPICE\combined.net
C:\Users\afons\OneDrive - Universidade de Lisboa\UNI\Tese\LTSpice sims\EPC23102_Behavioral_Model_LTSPICE\EPC23102_Behavioral_Model_LTSPICE\EPC23102_model.net
C:\Users\afons\OneDrive\Documentos\LTspice\LTSpice_WCAP-ATUL (rev25b)\WCAP-ATUL.lib
C:\Users\afons\OneDrive\Documentos\LTspice\LTSpice_WE-HCF (rev22a)\WE-HCF.lib
C:\Users\afons\OneDrive\Documentos\LTspice\Solar Panel\SolarPanels.lib
C:\Users\afons\OneDrive\Documentos\LTspice\WCAP-HTG5\WCAP-HTG5.lib
C:\Users\afons\AppData\Local\LTspice\lib\cmp\standard.dio


Measurement: vout_mean
  step	AVG(V(Vout))	FROM	TO
     1	43.1956352581	0	0.0001
     2	43.1987691145	0	0.0001
     3	43.2015925206	0	0.0001
     4	43.2041187795	0	0.0001
     5	43.2063656795	0	0.0001
     6	43.2083388832	0	0.0001
     7	43.2100539029	0	0.0001
     8	43.2115436971	0	0.0001
     9	43.2128179285	0	0.0001
    10	43.2138995188	0	0.0001
    11	43.2148079698	0	0.0001
    12	43.215559801	0	0.0001
    13	43.2161793085	0	0.0001
    14	43.2166767153	0	0.0001
    15	43.2170690772	0	0.0001
    16	43.2173757423	0	0.0001
    17	43.2176038606	0	0.0001
    18	43.2177702182	0	0.0001
    19	43.217886979	0	0.0001
    20	43.2179659082	0	0.0001
    21	43.2180186866	0	0.0001
    22	43.2180429743	0	0.0001
    23	43.2180418911	0	0.0001
    24	43.2180015296	0	0.0001
    25	43.2179169358	0	0.0001
    26	43.2177735821	0	0.0001
    27	43.2175687544	0	0.0001
    28	43.2172989892	0	0.0001
    29	43.2169601593	0	0.0001
    30	43.2165691932	0	0.0001
    31	43.2161247836	0	0.0001
    32	43.2156433756	0	0.0001
    33	43.2151274256	0	0.0001
    34	43.2145852853	0	0.0001
    35	43.2140378953	0	0.0001
    36	43.2134751293	0	0.0001
    37	43.2129197873	0	0.0001
    38	43.2123642767	0	0.0001
    39	43.2118252037	0	0.0001
    40	43.2112962709	0	0.0001
    41	43.2107834912	0	0.0001
    42	43.2102831087	0	0.0001
    43	43.2098042523	0	0.0001
    44	43.2093411924	0	0.0001
    45	43.2089001181	0	0.0001
    46	43.2084779518	0	0.0001
    47	43.2080690183	0	0.0001
    48	43.2076834614	0	0.0001
    49	43.2073111768	0	0.0001
    50	43.2069600756	0	0.0001
    51	43.2066232305	0	0.0001
    52	43.2062975841	0	0.0001
    53	43.205997413	0	0.0001
    54	43.2057075397	0	0.0001
    55	43.2054294401	0	0.0001
    56	43.2051697694	0	0.0001
    57	43.204925998	0	0.0001
    58	43.2046951775	0	0.0001
    59	43.2044822006	0	0.0001
    60	43.2042924326	0	0.0001
    61	43.2041177505	0	0.0001

Measurement: vout_max
  step	MAX(V(Vout))	FROM	TO
     1	43.1992530823	0	0.0001
     2	43.2018241882	0	0.0001
     3	43.206199646	0	0.0001
     4	43.2101745605	0	0.0001
     5	43.2137680054	0	0.0001
     6	43.2169837952	0	0.0001
     7	43.219833374	0	0.0001
     8	43.222366333	0	0.0001
     9	43.2245864868	0	0.0001
    10	43.2265281677	0	0.0001
    11	43.2282180786	0	0.0001
    12	43.2296714783	0	0.0001
    13	43.2309303284	0	0.0001
    14	43.2319984436	0	0.0001
    15	43.2329101562	0	0.0001
    16	43.2336883545	0	0.0001
    17	43.2343406677	0	0.0001
    18	43.2349014282	0	0.0001
    19	43.2353820801	0	0.0001
    20	43.2358016968	0	0.0001
    21	43.2362060547	0	0.0001
    22	43.2365913391	0	0.0001
    23	43.2369766235	0	0.0001
    24	43.2373313904	0	0.0001
    25	43.2376670837	0	0.0001
    26	43.2379341125	0	0.0001
    27	43.2381210327	0	0.0001
    28	43.2382049561	0	0.0001
    29	43.2381629944	0	0.0001
    30	43.2380065918	0	0.0001
    31	43.2377204895	0	0.0001
    32	43.2373313904	0	0.0001
    33	43.2368202209	0	0.0001
    34	43.2362136841	0	0.0001
    35	43.2355308533	0	0.0001
    36	43.2347679138	0	0.0001
    37	43.2339630127	0	0.0001
    38	43.2331047058	0	0.0001
    39	43.2322158813	0	0.0001
    40	43.2313117981	0	0.0001
    41	43.2303771973	0	0.0001
    42	43.229434967	0	0.0001
    43	43.2284927368	0	0.0001
    44	43.2275505066	0	0.0001
    45	43.2266197205	0	0.0001
    46	43.2256965637	0	0.0001
    47	43.2247810364	0	0.0001
    48	43.2238922119	0	0.0001
    49	43.2230072021	0	0.0001
    50	43.2221565247	0	0.0001
    51	43.2213134766	0	0.0001
    52	43.2208557129	0	0.0001
    53	43.2205619812	0	0.0001
    54	43.2202796936	0	0.0001
    55	43.2200050354	0	0.0001
    56	43.2197532654	0	0.0001
    57	43.2195205688	0	0.0001
    58	43.2192993164	0	0.0001
    59	43.2190971375	0	0.0001
    60	43.2189331055	0	0.0001
    61	43.2187843323	0	0.0001

Measurement: vout_min
  step	MIN(V(Vout))	FROM	TO
     1	43.1737060547	0	0.0001
     2	43.1783332825	0	0.0001
     3	43.1796569824	0	0.0001
     4	43.1810188293	0	0.0001
     5	43.1827583313	0	0.0001
     6	43.1843681335	0	0.0001
     7	43.1858177185	0	0.0001
     8	43.1870536804	0	0.0001
     9	43.1882209778	0	0.0001
    10	43.1892356873	0	0.0001
    11	43.190158844	0	0.0001
    12	43.1911315918	0	0.0001
    13	43.1920089722	0	0.0001
    14	43.1927566528	0	0.0001
    15	43.1933708191	0	0.0001
    16	43.1939201355	0	0.0001
    17	43.1943817139	0	0.0001
    18	43.19480896	0	0.0001
    19	43.1951560974	0	0.0001
    20	43.1954689026	0	0.0001
    21	43.1957015991	0	0.0001
    22	43.1958999634	0	0.0001
    23	43.1960639954	0	0.0001
    24	43.196182251	0	0.0001
    25	43.1960830688	0	0.0001
    26	43.1959495544	0	0.0001
    27	43.1957397461	0	0.0001
    28	43.1954154968	0	0.0001
    29	43.1950035095	0	0.0001
    30	43.1945419312	0	0.0001
    31	43.1940040588	0	0.0001
    32	43.193359375	0	0.0001
    33	43.1928100586	0	0.0001
    34	43.1922454834	0	0.0001
    35	43.1916770935	0	0.0001
    36	43.1910743713	0	0.0001
    37	43.1905632019	0	0.0001
    38	43.1900596619	0	0.0001
    39	43.1895828247	0	0.0001
    40	43.1891326904	0	0.0001
    41	43.1887397766	0	0.0001
    42	43.1883506775	0	0.0001
    43	43.1879997253	0	0.0001
    44	43.1876373291	0	0.0001
    45	43.1873016357	0	0.0001
    46	43.1869392395	0	0.0001
    47	43.1866493225	0	0.0001
    48	43.1863098145	0	0.0001
    49	43.1859817505	0	0.0001
    50	43.1856803894	0	0.0001
    51	43.1853790283	0	0.0001
    52	43.185043335	0	0.0001
    53	43.1847839355	0	0.0001
    54	43.1844825745	0	0.0001
    55	43.1841964722	0	0.0001
    56	43.1839599609	0	0.0001
    57	43.1837081909	0	0.0001
    58	43.1834602356	0	0.0001
    59	43.183265686	0	0.0001
    60	43.1830635071	0	0.0001
    61	43.1828422546	0	0.0001

Measurement: vout_pp
  step	Vout_max - Vout_min
     1	0.0255470275879
     2	0.0234909057617
     3	0.0265426635742
     4	0.0291557312012
     5	0.0310096740723
     6	0.0326156616211
     7	0.0340156555176
     8	0.0353126525879
     9	0.0363655090332
    10	0.0372924804688
    11	0.0380592346191
    12	0.0385398864746
    13	0.0389213562012
    14	0.0392417907715
    15	0.0395393371582
    16	0.0397682189941
    17	0.0399589538574
    18	0.0400924682617
    19	0.040225982666
    20	0.0403327941895
    21	0.0405044555664
    22	0.0406913757324
    23	0.0409126281738
    24	0.0411491394043
    25	0.0415840148926
    26	0.0419845581055
    27	0.0423812866211
    28	0.0427894592285
    29	0.0431594848633
    30	0.0434646606445
    31	0.0437164306641
    32	0.0439720153809
    33	0.0440101623535
    34	0.0439682006836
    35	0.0438537597656
    36	0.0436935424805
    37	0.043399810791
    38	0.0430450439453
    39	0.0426330566406
    40	0.042179107666
    41	0.0416374206543
    42	0.0410842895508
    43	0.0404930114746
    44	0.0399131774902
    45	0.0393180847168
    46	0.0387573242188
    47	0.0381317138672
    48	0.0375823974609
    49	0.0370254516602
    50	0.0364761352539
    51	0.0359344482422
    52	0.0358123779297
    53	0.0357780456543
    54	0.0357971191406
    55	0.0358085632324
    56	0.0357933044434
    57	0.0358123779297
    58	0.0358390808105
    59	0.035831451416
    60	0.0358695983887
    61	0.0359420776367

Measurement: vin_mean
  step	AVG(V(VDC))	FROM	TO
     1	25.9073638406	0	0.0001
     2	25.70562362	0	0.0001
     3	25.5023678389	0	0.0001
     4	25.2977076937	0	0.0001
     5	25.0918257021	0	0.0001
     6	24.8842406956	0	0.0001
     7	24.6758588731	0	0.0001
     8	24.4658559245	0	0.0001
     9	24.2547336132	0	0.0001
    10	24.0434645365	0	0.0001
    11	23.8306373334	0	0.0001
    12	23.6182201956	0	0.0001
    13	23.4039367134	0	0.0001
    14	23.190549169	0	0.0001
    15	22.9772858466	0	0.0001
    16	22.761712395	0	0.0001
    17	22.5472378678	0	0.0001
    18	22.3322826573	0	0.0001
    19	22.1202879836	0	0.0001
    20	21.9114408846	0	0.0001
    21	21.7071804647	0	0.0001
    22	21.5112315871	0	0.0001
    23	21.3246238286	0	0.0001
    24	21.1454315242	0	0.0001
    25	20.9759633784	0	0.0001
    26	20.8089516613	0	0.0001
    27	20.6443729059	0	0.0001
    28	20.4799005833	0	0.0001
    29	20.3131706756	0	0.0001
    30	20.1419127577	0	0.0001
    31	19.9620267795	0	0.0001
    32	19.7755992912	0	0.0001
    33	19.5794336851	0	0.0001
    34	19.3775163745	0	0.0001
    35	19.1647565677	0	0.0001
    36	18.9415196365	0	0.0001
    37	18.7124199894	0	0.0001
    38	18.4773207344	0	0.0001
    39	18.2378575247	0	0.0001
    40	17.9897784633	0	0.0001
    41	17.7349136926	0	0.0001
    42	17.4773222096	0	0.0001
    43	17.2166557816	0	0.0001
    44	16.9511195211	0	0.0001
    45	16.6851923062	0	0.0001
    46	16.4165096497	0	0.0001
    47	16.1448768123	0	0.0001
    48	15.8755774321	0	0.0001
    49	15.6032158155	0	0.0001
    50	15.3313930197	0	0.0001
    51	15.0596444073	0	0.0001
    52	14.7923713293	0	0.0001
    53	14.5241754482	0	0.0001
    54	14.2536691652	0	0.0001
    55	13.9922037463	0	0.0001
    56	13.7308581783	0	0.0001
    57	13.4707861749	0	0.0001
    58	13.2144606491	0	0.0001
    59	12.9645588209	0	0.0001
    60	12.7151585563	0	0.0001
    61	12.4708039322	0	0.0001

Measurement: vin_max
  step	MAX(V(VDC))	FROM	TO
     1	25.9325504303	0	0.0001
     2	25.7309894562	0	0.0001
     3	25.5277519226	0	0.0001
     4	25.3231010437	0	0.0001
     5	25.1173095703	0	0.0001
     6	24.9097499847	0	0.0001
     7	24.7014923096	0	0.0001
     8	24.4915370941	0	0.0001
     9	24.2805519104	0	0.0001
    10	24.0692672729	0	0.0001
    11	23.8564758301	0	0.0001
    12	23.6439876556	0	0.0001
    13	23.4296360016	0	0.0001
    14	23.2166633606	0	0.0001
    15	23.0032329559	0	0.0001
    16	22.7875366211	0	0.0001
    17	22.5737895966	0	0.0001
    18	22.3590965271	0	0.0001
    19	22.1474094391	0	0.0001
    20	21.9400863647	0	0.0001
    21	21.7369976044	0	0.0001
    22	21.5439834595	0	0.0001
    23	21.362569809	0	0.0001
    24	21.1918907166	0	0.0001
    25	21.0363521576	0	0.0001
    26	20.8900585175	0	0.0001
    27	20.7543907166	0	0.0001
    28	20.63048172	0	0.0001
    29	20.5129165649	0	0.0001
    30	20.4032402039	0	0.0001
    31	20.2976303101	0	0.0001
    32	20.1933498383	0	0.0001
    33	20.0857505798	0	0.0001
    34	19.9787445068	0	0.0001
    35	19.8712654114	0	0.0001
    36	19.7629032135	0	0.0001
    37	19.6515102386	0	0.0001
    38	19.5340595245	0	0.0001
    39	19.4152126312	0	0.0001
    40	19.288646698	0	0.0001
    41	19.155298233	0	0.0001
    42	19.0168514252	0	0.0001
    43	18.8758087158	0	0.0001
    44	18.7263755798	0	0.0001
    45	18.5779209137	0	0.0001
    46	18.4241065979	0	0.0001
    47	18.2646865845	0	0.0001
    48	18.1052246094	0	0.0001
    49	17.9433555603	0	0.0001
    50	17.7807216644	0	0.0001
    51	17.6133155823	0	0.0001
    52	17.4467887878	0	0.0001
    53	17.27983284	0	0.0001
    54	17.1067390442	0	0.0001
    55	16.9375534058	0	0.0001
    56	16.7624835968	0	0.0001
    57	16.5879135132	0	0.0001
    58	16.4090900421	0	0.0001
    59	16.2280597687	0	0.0001
    60	16.0400028229	0	0.0001
    61	15.8454341888	0	0.0001

Measurement: vin_min
  step	MIN(V(VDC))	FROM	TO
     1	25.8850593567	0	0.0001
     2	25.6830692291	0	0.0001
     3	25.4796142578	0	0.0001
     4	25.274805069	0	0.0001
     5	25.0687084198	0	0.0001
     6	24.8610095978	0	0.0001
     7	24.652425766	0	0.0001
     8	24.4422016144	0	0.0001
     9	24.2309246063	0	0.0001
    10	24.0193557739	0	0.0001
    11	23.8064785004	0	0.0001
    12	23.5939083099	0	0.0001
    13	23.3794898987	0	0.0001
    14	23.1657848358	0	0.0001
    15	22.9520740509	0	0.0001
    16	22.7366809845	0	0.0001
    17	22.5211906433	0	0.0001
    18	22.3053283691	0	0.0001
    19	22.0912704468	0	0.0001
    20	21.8779621124	0	0.0001
    21	21.6707134247	0	0.0001
    22	21.4697341919	0	0.0001
    23	21.2813072205	0	0.0001
    24	21.0809440613	0	0.0001
    25	20.8755989075	0	0.0001
    26	20.6565208435	0	0.0001
    27	20.4266586304	0	0.0001
    28	20.1832103729	0	0.0001
    29	19.9297065735	0	0.0001
    30	19.658914566	0	0.0001
    31	19.3781013489	0	0.0001
    32	19.0851535797	0	0.0001
    33	18.78074646	0	0.0001
    34	18.4672336578	0	0.0001
    35	18.1440658569	0	0.0001
    36	17.8138771057	0	0.0001
    37	17.4785194397	0	0.0001
    38	17.1421775818	0	0.0001
    39	16.8004970551	0	0.0001
    40	16.4562931061	0	0.0001
    41	16.1086215973	0	0.0001
    42	15.763171196	0	0.0001
    43	15.4158935547	0	0.0001
    44	15.0705795288	0	0.0001
    45	14.7239198685	0	0.0001
    46	14.3785171509	0	0.0001
    47	14.0349617004	0	0.0001
    48	13.6955337524	0	0.0001
    49	13.3533735275	0	0.0001
    50	13.0126085281	0	0.0001
    51	12.6774206161	0	0.0001
    52	12.3461494446	0	0.0001
    53	12.0146446228	0	0.0001
    54	11.6860980988	0	0.0001
    55	11.3652429581	0	0.0001
    56	11.0506820679	0	0.0001
    57	10.7368240356	0	0.0001
    58	10.4320068359	0	0.0001
    59	10.138045311	0	0.0001
    60	9.85149765015	0	0.0001
    61	9.57773780823	0	0.0001

Measurement: vin_pp
  step	Vin_max - Vin_min
     1	0.0474910736084
     2	0.0479202270508
     3	0.0481376647949
     4	0.0482959747314
     5	0.0486011505127
     6	0.0487403869629
     7	0.0490665435791
     8	0.0493354797363
     9	0.0496273040771
    10	0.0499114990234
    11	0.0499973297119
    12	0.0500793457031
    13	0.0501461029053
    14	0.0508785247803
    15	0.0511589050293
    16	0.0508556365967
    17	0.0525989532471
    18	0.053768157959
    19	0.0561389923096
    20	0.0621242523193
    21	0.0662841796875
    22	0.0742492675781
    23	0.081262588501
    24	0.110946655273
    25	0.160753250122
    26	0.23353767395
    27	0.327732086182
    28	0.447271347046
    29	0.583209991455
    30	0.744325637817
    31	0.919528961182
    32	1.10819625854
    33	1.30500411987
    34	1.511510849
    35	1.72719955444
    36	1.94902610779
    37	2.17299079895
    38	2.39188194275
    39	2.61471557617
    40	2.83235359192
    41	3.04667663574
    42	3.25368022919
    43	3.45991516113
    44	3.65579605103
    45	3.85400104523
    46	4.04558944702
    47	4.22972488403
    48	4.40969085693
    49	4.58998203278
    50	4.76811313629
    51	4.93589496613
    52	5.10063934326
    53	5.26518821716
    54	5.42064094543
    55	5.57231044769
    56	5.71180152893
    57	5.85108947754
    58	5.97708320618
    59	6.0900144577
    60	6.18850517273
    61	6.26769638062

Measurement: iin_mean
  step	AVG(I(L1))	FROM	TO
     1	-1.20365751554	0	0.0001
     2	-0.336119945392	0	0.0001
     3	0.458230110222	0	0.0001
     4	1.18144975834	0	0.0001
     5	1.83677978841	0	0.0001
     6	2.42419341182	0	0.0001
     7	2.94638859967	0	0.0001
     8	3.41163601112	0	0.0001
     9	3.82087299964	0	0.0001
    10	4.1796843356	0	0.0001
    11	4.49262931672	0	0.0001
    12	4.76342321567	0	0.0001
    13	4.99864341298	0	0.0001
    14	5.19987746455	0	0.0001
    15	5.37214558146	0	0.0001
    16	5.52054264885	0	0.0001
    17	5.64648781057	0	0.0001
    18	5.75522945373	0	0.0001
    19	5.84963453338	0	0.0001
    20	5.93336780008	0	0.0001
    21	6.00947383686	0	0.0001
    22	6.07701258058	0	0.0001
    23	6.13645989372	0	0.0001
    24	6.18308815646	0	0.0001
    25	6.21381086092	0	0.0001
    26	6.22413071625	0	0.0001
    27	6.21194200005	0	0.0001
    28	6.17606585774	0	0.0001
    29	6.11444373407	0	0.0001
    30	6.03282936158	0	0.0001
    31	5.92997606671	0	0.0001
    32	5.81182801675	0	0.0001
    33	5.67880557488	0	0.0001
    34	5.53356934489	0	0.0001
    35	5.38410314913	0	0.0001
    36	5.2256633327	0	0.0001
    37	5.0677372598	0	0.0001
    38	4.9061504427	0	0.0001
    39	4.74881543717	0	0.0001
    40	4.59169233183	0	0.0001
    41	4.43870971267	0	0.0001
    42	4.28704574269	0	0.0001
    43	4.14129487543	0	0.0001
    44	3.99885452475	0	0.0001
    45	3.86258554771	0	0.0001
    46	3.73133263919	0	0.0001
    47	3.60247623425	0	0.0001
    48	3.48054538632	0	0.0001
    49	3.36171691647	0	0.0001
    50	3.24924364104	0	0.0001
    51	3.14042398596	0	0.0001
    52	3.03375636628	0	0.0001
    53	2.93611349632	0	0.0001
    54	2.8404311615	0	0.0001
    55	2.74744618937	0	0.0001
    56	2.66078359712	0	0.0001
    57	2.57936859983	0	0.0001
    58	2.50199843957	0	0.0001
    59	2.43120269713	0	0.0001
    60	2.37041050722	0	0.0001
    61	2.31559464316	0	0.0001

Measurement: iin_max
  step	MAX(I(L1))	FROM	TO
     1	-0.440878331661	0	0.0001
     2	0.429735451937	0	0.0001
     3	1.22685194016	0	0.0001
     4	1.95280468464	0	0.0001
     5	2.61065196991	0	0.0001
     6	3.20051145554	0	0.0001
     7	3.7248840332	0	0.0001
     8	4.19270658493	0	0.0001
     9	4.6035823822	0	0.0001
    10	4.96423196793	0	0.0001
    11	5.27896881104	0	0.0001
    12	5.55130720139	0	0.0001
    13	5.78804588318	0	0.0001
    14	5.9904294014	0	0.0001
    15	6.16380643845	0	0.0001
    16	6.31300163269	0	0.0001
    17	6.43969583511	0	0.0001
    18	6.54957056046	0	0.0001
    19	6.64412546158	0	0.0001
    20	6.72846746445	0	0.0001
    21	6.80947971344	0	0.0001
    22	6.88729190826	0	0.0001
    23	6.96423339844	0	0.0001
    24	7.03625822067	0	0.0001
    25	7.1039018631	0	0.0001
    26	7.15820837021	0	0.0001
    27	7.19720029831	0	0.0001
    28	7.21738004684	0	0.0001
    29	7.21254730225	0	0.0001
    30	7.18686819077	0	0.0001
    31	7.13651323318	0	0.0001
    32	7.06662464142	0	0.0001
    33	6.97424459457	0	0.0001
    34	6.86319255829	0	0.0001
    35	6.73824167252	0	0.0001
    36	6.59805870056	0	0.0001
    37	6.44918251038	0	0.0001
    38	6.29128313065	0	0.0001
    39	6.1270570755	0	0.0001
    40	5.95920276642	0	0.0001
    41	5.78628158569	0	0.0001
    42	5.61178779602	0	0.0001
    43	5.43689870834	0	0.0001
    44	5.26217603683	0	0.0001
    45	5.08901500702	0	0.0001
    46	4.91735935211	0	0.0001
    47	4.74685239792	0	0.0001
    48	4.58074855804	0	0.0001
    49	4.41583871841	0	0.0001
    50	4.25716590881	0	0.0001
    51	4.1305475235	0	0.0001
    52	4.07276821136	0	0.0001
    53	4.0214381218	0	0.0001
    54	3.97191619873	0	0.0001
    55	3.9233417511	0	0.0001
    56	3.8795363903	0	0.0001
    57	3.8385424614	0	0.0001
    58	3.80005121231	0	0.0001
    59	3.76506185532	0	0.0001
    60	3.73663234711	0	0.0001
    61	3.71125006676	0	0.0001

Measurement: iin_min
  step	MIN(I(L1))	FROM	TO
     1	-1.96596682072	0	0.0001
     2	-1.10161936283	0	0.0001
     3	-0.310205072165	0	0.0001
     4	0.410149931908	0	0.0001
     5	1.06278657913	0	0.0001
     6	1.6477175951	0	0.0001
     7	2.16759705544	0	0.0001
     8	2.63050556183	0	0.0001
     9	3.03775382042	0	0.0001
    10	3.39452457428	0	0.0001
    11	3.70581936836	0	0.0001
    12	3.97506213188	0	0.0001
    13	4.20889139175	0	0.0001
    14	4.40883779526	0	0.0001
    15	4.58013057709	0	0.0001
    16	4.72769021988	0	0.0001
    17	4.85272741318	0	0.0001
    18	4.96004962921	0	0.0001
    19	5.05435228348	0	0.0001
    20	5.13668775558	0	0.0001
    21	5.20579338074	0	0.0001
    22	5.26257324219	0	0.0001
    23	5.30482530594	0	0.0001
    24	5.32832717896	0	0.0001
    25	5.32744693756	0	0.0001
    26	5.30199670792	0	0.0001
    27	5.25058031082	0	0.0001
    28	5.17426204681	0	0.0001
    29	5.07533407211	0	0.0001
    30	4.96063566208	0	0.0001
    31	4.83018064499	0	0.0001
    32	4.6905465126	0	0.0001
    33	4.54514884949	0	0.0001
    34	4.39529371262	0	0.0001
    35	4.25017404556	0	0.0001
    36	4.10336875916	0	0.0001
    37	3.96552109718	0	0.0001
    38	3.82847356796	0	0.0001
    39	3.70329117775	0	0.0001
    40	3.57027316093	0	0.0001
    41	3.44695472717	0	0.0001
    42	3.31465816498	0	0.0001
    43	3.19175004959	0	0.0001
    44	3.06453680992	0	0.0001
    45	2.9413216114	0	0.0001
    46	2.82451295853	0	0.0001
    47	2.69823551178	0	0.0001
    48	2.57971572876	0	0.0001
    49	2.46451234818	0	0.0001
    50	2.34810066223	0	0.0001
    51	2.23247981071	0	0.0001
    52	2.11947274208	0	0.0001
    53	2.01616978645	0	0.0001
    54	1.90938258171	0	0.0001
    55	1.80197799206	0	0.0001
    56	1.70176124573	0	0.0001
    57	1.60804367065	0	0.0001
    58	1.51914417744	0	0.0001
    59	1.43807506561	0	0.0001
    60	1.36708140373	0	0.0001
    61	1.29932320118	0	0.0001

Measurement: iin_pp
  step	Iin_max - Iin_min
     1	1.52508848906
     2	1.53135481477
     3	1.53705701232
     4	1.54265475273
     5	1.54786539078
     6	1.55279386044
     7	1.55728697777
     8	1.5622010231
     9	1.56582856178
    10	1.56970739365
    11	1.57314944267
    12	1.5762450695
    13	1.57915449142
    14	1.58159160614
    15	1.58367586136
    16	1.58531141281
    17	1.58696842194
    18	1.58952093124
    19	1.5897731781
    20	1.59177970886
    21	1.6036863327
    22	1.62471866608
    23	1.6594080925
    24	1.70793104172
    25	1.77645492554
    26	1.85621166229
    27	1.94661998749
    28	2.04311800003
    29	2.13721323013
    30	2.22623252869
    31	2.3063325882
    32	2.37607812881
    33	2.42909574509
    34	2.46789884567
    35	2.48806762695
    36	2.49468994141
    37	2.48366141319
    38	2.46280956268
    39	2.42376589775
    40	2.38892960548
    41	2.33932685852
    42	2.29712963104
    43	2.24514865875
    44	2.19763922691
    45	2.14769339561
    46	2.09284639359
    47	2.04861688614
    48	2.00103282928
    49	1.95132637024
    50	1.90906524658
    51	1.89806771278
    52	1.95329546928
    53	2.00526833534
    54	2.06253361702
    55	2.12136375904
    56	2.17777514458
    57	2.23049879074
    58	2.28090703487
    59	2.3269867897
    60	2.36955094337
    61	2.41192686558

Measurement: pin_mean
  step	Vin_mean * Iin_mean
     1	-31.1835931946
     2	-8.64017280743
     3	11.6859528257
     4	29.8879706413
     5	46.0881583039
     6	60.3242123524
     7	72.7046692707
     8	83.4685951149
     9	92.6742567763
    10	100.494092097
    11	107.06221992
    12	112.503578393
    13	116.98793409
    14	120.588014014
    15	123.437324635
    16	125.657004038
    17	127.312703783
    18	128.527410918
    19	129.395600477
    20	130.008637798
    21	130.448733075
    22	130.724024979
    23	130.857698873
    24	130.74406722
    25	130.340669059
    26	129.517635208
    27	128.241647118
    28	126.485214762
    29	124.203739156
    30	121.512722683
    31	118.374341045
    32	114.932382009
    33	111.187797164
    34	107.22683059
    35	103.185026188
    36	98.9820046301
    37	94.8296280011
    38	90.6525153011
    39	86.6082193543
    40	82.6035278212
    41	78.7201336606
    42	74.9260797722
    43	71.2992483603
    44	67.7850609965
    45	64.4479826627
    46	61.2554582774
    47	58.1615350213
    48	55.2556677863
    49	52.4535945582
    50	49.8154312774
    51	47.2936685168
    52	44.8764506926
    53	42.6446275565
    54	40.4865660624
    55	38.4428268638
    56	36.5348422153
    57	34.7461228745
    58	33.0625599239
    59	31.5194703725
    60	30.140145443
    61	28.8773267814

Measurement: iout_mean
  step	AVG(I(V1))	FROM	TO
     1	-0.727456827773	0	0.0001
     2	-0.205147043351	0	0.0001
     3	0.265418844396	0	0.0001
     4	0.686463238182	0	0.0001
     5	1.06094767672	0	0.0001
     6	1.38981438149	0	0.0001
     7	1.6756518352	0	0.0001
     8	1.92394913264	0	0.0001
     9	2.1363226223	0	0.0001
    10	2.31658748111	0	0.0001
    11	2.46799607731	0	0.0001
    12	2.59329915412	0	0.0001
    13	2.69655122342	0	0.0001
    14	2.77945184886	0	0.0001
    15	2.84484715271	0	0.0001
    16	2.89595551566	0	0.0001
    17	2.93397646875	0	0.0001
    18	2.96170568935	0	0.0001
    19	2.98116185648	0	0.0001
    20	2.99431800562	0	0.0001
    21	3.00311577638	0	0.0001
    22	3.00716159247	0	0.0001
    23	3.00698049817	0	0.0001
    24	3.00025635544	0	0.0001
    25	2.98615611539	0	0.0001
    26	2.96226653964	0	0.0001
    27	2.92812491108	0	0.0001
    28	2.88316568494	0	0.0001
    29	2.82669321973	0	0.0001
    30	2.76153646251	0	0.0001
    31	2.68746497545	0	0.0001
    32	2.60723114433	0	0.0001
    33	2.52123610544	0	0.0001
    34	2.43088247195	0	0.0001
    35	2.33964799639	0	0.0001
    36	2.24585637677	0	0.0001
    37	2.15329794054	0	0.0001
    38	2.06071307187	0	0.0001
    39	1.97086937077	0	0.0001
    40	1.88271129859	0	0.0001
    41	1.79724612745	0	0.0001
    42	1.71385351885	0	0.0001
    43	1.63404121988	0	0.0001
    44	1.55686614024	0	0.0001
    45	1.48335066349	0	0.0001
    46	1.41299362933	0	0.0001
    47	1.34483612219	0	0.0001
    48	1.28057668843	0	0.0001
    49	1.21852889277	0	0.0001
    50	1.16001095081	0	0.0001
    51	1.1038736117	0	0.0001
    52	1.04959826647	0	0.0001
    53	0.999567085603	0	0.0001
    54	0.951256235975	0	0.0001
    55	0.904906340697	0	0.0001
    56	0.861630233561	0	0.0001
    57	0.820998358059	0	0.0001
    58	0.782528267026	0	0.0001
    59	0.747035749386	0	0.0001
    60	0.715407362914	0	0.0001
    61	0.68629108626	0	0.0001

Measurement: iout_max
  step	MAX(I(V1))	FROM	TO
     1	-0.124734409153	0	0.0001
     2	0.30393743515	0	0.0001
     3	1.03298139572	0	0.0001
     4	1.69549536705	0	0.0001
     5	2.2945291996	0	0.0001
     6	2.83031868935	0	0.0001
     7	3.30539250374	0	0.0001
     8	3.7279522419	0	0.0001
     9	4.09800672531	0	0.0001
    10	4.42167806625	0	0.0001
    11	4.70296573639	0	0.0001
    12	4.94535827637	0	0.0001
    13	5.15500736237	0	0.0001
    14	5.3332324028	0	0.0001
    15	5.48486423492	0	0.0001
    16	5.61441373825	0	0.0001
    17	5.72341775894	0	0.0001
    18	5.81706047058	0	0.0001
    19	5.89671564102	0	0.0001
    20	5.96710777283	0	0.0001
    21	6.0342965126	0	0.0001
    22	6.09869909286	0	0.0001
    23	6.16245937347	0	0.0001
    24	6.22201538086	0	0.0001
    25	6.27797031403	0	0.0001
    26	6.32226800919	0	0.0001
    27	6.35325527191	0	0.0001
    28	6.3677110672	0	0.0001
    29	6.36020708084	0	0.0001
    30	6.33425855637	0	0.0001
    31	6.28656816483	0	0.0001
    32	6.22162103653	0	0.0001
    33	6.13675928116	0	0.0001
    34	6.03548049927	0	0.0001
    35	5.92185592651	0	0.0001
    36	5.79487991333	0	0.0001
    37	5.66019916534	0	0.0001
    38	5.5176410675	0	0.0001
    39	5.36951875687	0	0.0001
    40	5.21832704544	0	0.0001
    41	5.06266832352	0	0.0001
    42	4.90583467484	0	0.0001
    43	4.74878311157	0	0.0001
    44	4.59199714661	0	0.0001
    45	4.43673419952	0	0.0001
    46	4.282954216	0	0.0001
    47	4.130402565	0	0.0001
    48	3.98185658455	0	0.0001
    49	3.83457016945	0	0.0001
    50	3.6929833889	0	0.0001
    51	3.55230093002	0	0.0001
    52	3.47584605217	0	0.0001
    53	3.42706394196	0	0.0001
    54	3.38004660606	0	0.0001
    55	3.33402991295	0	0.0001
    56	3.29229807854	0	0.0001
    57	3.25325608253	0	0.0001
    58	3.21650505066	0	0.0001
    59	3.1830534935	0	0.0001
    60	3.15547585487	0	0.0001
    61	3.13062000275	0	0.0001

Measurement: iout_min
  step	MIN(I(V1))	FROM	TO
     1	-4.38239526749	0	0.0001
     2	-3.61086726189	0	0.0001
     3	-3.39025092125	0	0.0001
     4	-3.1638314724	0	0.0001
     5	-2.87340855598	0	0.0001
     6	-2.60529661179	0	0.0001
     7	-2.36366701126	0	0.0001
     8	-2.1578130722	0	0.0001
     9	-1.96305036545	0	0.0001
    10	-1.7940659523	0	0.0001
    11	-1.64011883736	0	0.0001
    12	-1.47792339325	0	0.0001
    13	-1.33187508583	0	0.0001
    14	-1.20693743229	0	0.0001
    15	-1.10486328602	0	0.0001
    16	-1.01352262497	0	0.0001
    17	-0.936609566212	0	0.0001
    18	-0.864950478077	0	0.0001
    19	-0.807411432266	0	0.0001
    20	-0.754888892174	0	0.0001
    21	-0.716167390347	0	0.0001
    22	-0.683363974094	0	0.0001
    23	-0.656233131886	0	0.0001
    24	-0.636103928089	0	0.0001
    25	-0.652511954308	0	0.0001
    26	-0.675246715546	0	0.0001
    27	-0.709796667099	0	0.0001
    28	-0.763793587685	0	0.0001
    29	-0.832947134972	0	0.0001
    30	-0.909443736076	0	0.0001
    31	-0.999474108219	0	0.0001
    32	-1.10708129406	0	0.0001
    33	-1.19819223881	0	0.0001
    34	-1.29236459732	0	0.0001
    35	-1.38705980778	0	0.0001
    36	-1.48754036427	0	0.0001
    37	-1.57308638096	0	0.0001
    38	-1.6566785574	0	0.0001
    39	-1.73597860336	0	0.0001
    40	-1.81135702133	0	0.0001
    41	-1.87647461891	0	0.0001
    42	-1.94184088707	0	0.0001
    43	-1.9998626709	0	0.0001
    44	-2.06073045731	0	0.0001
    45	-2.1164996624	0	0.0001
    46	-2.17683434486	0	0.0001
    47	-2.22483110428	0	0.0001
    48	-2.28188705444	0	0.0001
    49	-2.33641839027	0	0.0001
    50	-2.3863260746	0	0.0001
    51	-2.43687486649	0	0.0001
    52	-2.4926571846	0	0.0001
    53	-2.53583788872	0	0.0001
    54	-2.58629822731	0	0.0001
    55	-2.63414502144	0	0.0001
    56	-2.67356085777	0	0.0001
    57	-2.71537518501	0	0.0001
    58	-2.75648832321	0	0.0001
    59	-2.78931379318	0	0.0001
    60	-2.82296180725	0	0.0001
    61	-2.85970115662	0	0.0001

Measurement: iout_pp
  step	Iout_max - Iout_min
     1	4.25766085833
     2	3.91480469704
     3	4.42323231697
     4	4.85932683945
     5	5.16793775558
     6	5.43561530113
     7	5.669059515
     8	5.8857653141
     9	6.06105709076
    10	6.21574401855
    11	6.34308457375
    12	6.42328166962
    13	6.4868824482
    14	6.54016983509
    15	6.58972752094
    16	6.62793636322
    17	6.66002732515
    18	6.68201094866
    19	6.70412707329
    20	6.721996665
    21	6.75046390295
    22	6.78206306696
    23	6.81869250536
    24	6.85811930895
    25	6.93048226833
    26	6.99751472473
    27	7.06305193901
    28	7.13150465488
    29	7.19315421581
    30	7.24370229244
    31	7.28604227304
    32	7.32870233059
    33	7.33495151997
    34	7.32784509659
    35	7.30891573429
    36	7.2824202776
    37	7.2332855463
    38	7.1743196249
    39	7.10549736023
    40	7.02968406677
    41	6.93914294243
    42	6.8476755619
    43	6.74864578247
    44	6.65272760391
    45	6.55323386192
    46	6.45978856087
    47	6.35523366928
    48	6.26374363899
    49	6.17098855972
    50	6.0793094635
    51	5.98917579651
    52	5.96850323677
    53	5.96290183067
    54	5.96634483337
    55	5.96817493439
    56	5.96585893631
    57	5.96863126755
    58	5.97299337387
    59	5.97236728668
    60	5.97843766212
    61	5.99032115936

Measurement: pout_mean
  step	Vout_mean * Iout_mean
     1	-31.4229597985
     2	-8.86209976026
     3	11.4665167629
     4	29.6580392801
     5	45.8396932871
     6	60.0515707801
     7	72.4050061214
     8	83.1368120161
     9	92.316520514
    10	100.108778635
    11	106.653976551
    12	112.070874677
    13	116.534641186
    14	120.118671998
    15	122.945955913
    16	125.155597653
    17	126.799432763
    18	127.998315936
    19	128.839516179
    20	129.408333485
    21	129.788713742
    22	129.963638934
    23	129.955809136
    24	129.665083758
    25	129.055446952
    26	128.0225646
    27	126.546439666
    28	124.602633442
    29	122.16108826
    30	119.344131611
    31	116.14182173
    32	112.673171331
    33	108.955539567
    34	105.049577903
    35	101.105637178
    36	97.0512586814
    37	93.0502911826
    38	89.0482839316
    39	85.1648627488
    40	81.3543957161
    41	77.6604132934
    42	74.0560957564
    43	70.6066012513
    44	67.2711602448
    45	64.0939506588
    46	61.0533040788
    47	58.1077719859
    48	55.3307522018
    49	52.6493570479
    50	50.1205468388
    51	47.694651235
    52	45.3492550447
    53	43.1872929147
    54	41.0996987268
    55	39.0968670528
    56	37.2268805194
    57	35.4711733044
    58	33.8088952446
    59	32.2752927375
    60	30.9086689157
    61	29.6506009019

Measurement: loss
  step	100*(Pin_mean - Pout_mean)/Pin_mean
     1	-0.767604305515
     2	-2.56854761799
     3	1.87777638784
     4	0.769310716617
     5	0.539108148378
     6	0.45196043466
     7	0.412164930123
     8	0.397494528634
     9	0.386014708615
    10	0.383419018642
    11	0.381314127108
    12	0.384613291273
    13	0.387469791693
    14	0.389211166956
    15	0.398071428828
    16	0.399027804513
    17	0.403157740355
    18	0.411659254834
    19	0.429755181697
    20	0.461741867995
    21	0.505960707416
    22	0.581672760145
    23	0.689214119827
    24	0.82526380368
    25	0.986048419039
    26	1.15433748114
    27	1.32188527705
    28	1.48838053867
    29	1.64459694252
    30	1.78466174057
    31	1.88598246496
    32	1.96568681321
    33	2.00764621138
    34	2.03051109077
    35	2.0152042281
    36	1.95060299689
    37	1.87635115307
    38	1.76964904302
    39	1.66653536614
    40	1.51220188544
    41	1.34618720513
    42	1.16112309422
    43	0.971464812013
    44	0.758132756955
    45	0.549329846023
    46	0.330018261673
    47	0.0924374423415
    48	-0.135885454975
    49	-0.373210818671
    50	-0.61249206029
    51	-0.84785708276
    52	-1.05356895394
    53	-1.2725292476
    54	-1.51441014659
    55	-1.70133219223
    56	-1.89418719825
    57	-2.08670887565
    58	-2.25734281452
    59	-2.39795388705
    60	-2.5498333252
    61	-2.67778983279

Measurement: vout_mean2
  step	AVG(V(Vout2))	FROM	TO
     1	43.1949258184	0	0.0001
     2	43.1984250653	0	0.0001
     3	43.2015252749	0	0.0001
     4	43.2042496842	0	0.0001
     5	43.2066262147	0	0.0001
     6	43.2086874218	0	0.0001
     7	43.2104537871	0	0.0001
     8	43.2119611149	0	0.0001
     9	43.2132326584	0	0.0001
    10	43.2142918582	0	0.0001
    11	43.2151737902	0	0.0001
    12	43.2158897931	0	0.0001
    13	43.2164716997	0	0.0001
    14	43.2169328212	0	0.0001
    15	43.2172838224	0	0.0001
    16	43.2175575476	0	0.0001
    17	43.2177484516	0	0.0001
    18	43.2178782658	0	0.0001
    19	43.2179472045	0	0.0001
    20	43.2179588682	0	0.0001
    21	43.2179467481	0	0.0001
    22	43.2178975401	0	0.0001
    23	43.2178562973	0	0.0001
    24	43.2178367298	0	0.0001
    25	43.2178605712	0	0.0001
    26	43.2179376136	0	0.0001
    27	43.2180801129	0	0.0001
    28	43.2182949044	0	0.0001
    29	43.2185489017	0	0.0001
    30	43.2188788034	0	0.0001
    31	43.2192290755	0	0.0001
    32	43.2196111303	0	0.0001
    33	43.2200124517	0	0.0001
    34	43.2204326694	0	0.0001
    35	43.2208556805	0	0.0001
    36	43.2212686457	0	0.0001
    37	43.2216722428	0	0.0001
    38	43.2220505711	0	0.0001
    39	43.2224222015	0	0.0001
    40	43.2227711878	0	0.0001
    41	43.2230954488	0	0.0001
    42	43.223387253	0	0.0001
    43	43.2236626672	0	0.0001
    44	43.2238982945	0	0.0001
    45	43.2241254453	0	0.0001
    46	43.2243218651	0	0.0001
    47	43.224487072	0	0.0001
    48	43.2246300831	0	0.0001
    49	43.2247588999	0	0.0001
    50	43.2248688364	0	0.0001
    51	43.2249433916	0	0.0001
    52	43.2249938867	0	0.0001
    53	43.225033168	0	0.0001
    54	43.2250411801	0	0.0001
    55	43.225025552	0	0.0001
    56	43.2249723425	0	0.0001
    57	43.2249074278	0	0.0001
    58	43.2248023838	0	0.0001
    59	43.2246595782	0	0.0001
    60	43.2244786469	0	0.0001
    61	43.224249218	0	0.0001

Measurement: vout_max2
  step	MAX(V(Vout2))	FROM	TO
     1	43.2039108276	0	0.0001
     2	43.2097625732	0	0.0001
     3	43.215549469	0	0.0001
     4	43.2207450867	0	0.0001
     5	43.2253684998	0	0.0001
     6	43.2294464111	0	0.0001
     7	43.2330207825	0	0.0001
     8	43.2361526489	0	0.0001
     9	43.2388496399	0	0.0001
    10	43.2411727905	0	0.0001
    11	43.2431755066	0	0.0001
    12	43.2448692322	0	0.0001
    13	43.2463150024	0	0.0001
    14	43.2475395203	0	0.0001
    15	43.2485580444	0	0.0001
    16	43.2494163513	0	0.0001
    17	43.2501220703	0	0.0001
    18	43.2507209778	0	0.0001
    19	43.2512397766	0	0.0001
    20	43.251701355	0	0.0001
    21	43.2521095276	0	0.0001
    22	43.2525863647	0	0.0001
    23	43.2531890869	0	0.0001
    24	43.2539367676	0	0.0001
    25	43.2548751831	0	0.0001
    26	43.255947113	0	0.0001
    27	43.2571716309	0	0.0001
    28	43.2585525513	0	0.0001
    29	43.2599868774	0	0.0001
    30	43.2615203857	0	0.0001
    31	43.2629852295	0	0.0001
    32	43.2644691467	0	0.0001
    33	43.2660102844	0	0.0001
    34	43.2676010132	0	0.0001
    35	43.2691116333	0	0.0001
    36	43.270652771	0	0.0001
    37	43.2722206116	0	0.0001
    38	43.2736930847	0	0.0001
    39	43.2751617432	0	0.0001
    40	43.2766876221	0	0.0001
    41	43.2782058716	0	0.0001
    42	43.2796478271	0	0.0001
    43	43.2810401917	0	0.0001
    44	43.2823371887	0	0.0001
    45	43.283821106	0	0.0001
    46	43.2852554321	0	0.0001
    47	43.2866363525	0	0.0001
    48	43.2879600525	0	0.0001
    49	43.289276123	0	0.0001
    50	43.2905654907	0	0.0001
    51	43.2917671204	0	0.0001
    52	43.2930030823	0	0.0001
    53	43.2943077087	0	0.0001
    54	43.2955474854	0	0.0001
    55	43.2967071533	0	0.0001
    56	43.2977714539	0	0.0001
    57	43.2988204956	0	0.0001
    58	43.2997283936	0	0.0001
    59	43.3005371094	0	0.0001
    60	43.3012123108	0	0.0001
    61	43.3017044067	0	0.0001

Measurement: vout_min2
  step	MIN(V(Vout2))	FROM	TO
     1	43.1781272888	0	0.0001
     2	43.1790657043	0	0.0001
     3	43.1799621582	0	0.0001
     4	43.1806259155	0	0.0001
     5	43.1813430786	0	0.0001
     6	43.1820640564	0	0.0001
     7	43.1831893921	0	0.0001
     8	43.1842536926	0	0.0001
     9	43.1851806641	0	0.0001
    10	43.1859741211	0	0.0001
    11	43.1866264343	0	0.0001
    12	43.187210083	0	0.0001
    13	43.1876831055	0	0.0001
    14	43.188079834	0	0.0001
    15	43.1884155273	0	0.0001
    16	43.1886825562	0	0.0001
    17	43.1889228821	0	0.0001
    18	43.1891021729	0	0.0001
    19	43.189239502	0	0.0001
    20	43.1893234253	0	0.0001
    21	43.1893692017	0	0.0001
    22	43.1893119812	0	0.0001
    23	43.1892204285	0	0.0001
    24	43.1890869141	0	0.0001
    25	43.1889266968	0	0.0001
    26	43.1888313293	0	0.0001
    27	43.1887283325	0	0.0001
    28	43.1887016296	0	0.0001
    29	43.1886978149	0	0.0001
    30	43.1887664795	0	0.0001
    31	43.1889381409	0	0.0001
    32	43.1892204285	0	0.0001
    33	43.1895675659	0	0.0001
    34	43.1900100708	0	0.0001
    35	43.1905250549	0	0.0001
    36	43.191192627	0	0.0001
    37	43.1918334961	0	0.0001
    38	43.192527771	0	0.0001
    39	43.1932830811	0	0.0001
    40	43.194065094	0	0.0001
    41	43.1948547363	0	0.0001
    42	43.1952934265	0	0.0001
    43	43.1949958801	0	0.0001
    44	43.1947097778	0	0.0001
    45	43.1944084167	0	0.0001
    46	43.1941070557	0	0.0001
    47	43.193775177	0	0.0001
    48	43.1934204102	0	0.0001
    49	43.1930770874	0	0.0001
    50	43.1927185059	0	0.0001
    51	43.1924133301	0	0.0001
    52	43.1920394897	0	0.0001
    53	43.1916999817	0	0.0001
    54	43.1913146973	0	0.0001
    55	43.190952301	0	0.0001
    56	43.190574646	0	0.0001
    57	43.190246582	0	0.0001
    58	43.1898612976	0	0.0001
    59	43.189491272	0	0.0001
    60	43.189163208	0	0.0001
    61	43.1889266968	0	0.0001

Measurement: vout_pp2
  step	Vout_max2 - Vout_min2
     1	0.0257835388184
     2	0.0306968688965
     3	0.035587310791
     4	0.0401191711426
     5	0.0440254211426
     6	0.0473823547363
     7	0.0498313903809
     8	0.0518989562988
     9	0.0536689758301
    10	0.0551986694336
    11	0.0565490722656
    12	0.0576591491699
    13	0.0586318969727
    14	0.0594596862793
    15	0.0601425170898
    16	0.060733795166
    17	0.0611991882324
    18	0.0616188049316
    19	0.0620002746582
    20	0.0623779296875
    21	0.0627403259277
    22	0.0632743835449
    23	0.0639686584473
    24	0.0648498535156
    25	0.0659484863281
    26	0.0671157836914
    27	0.0684432983398
    28	0.0698509216309
    29	0.0712890625
    30	0.07275390625
    31	0.074047088623
    32	0.0752487182617
    33	0.0764427185059
    34	0.0775909423828
    35	0.0785865783691
    36	0.079460144043
    37	0.0803871154785
    38	0.0811653137207
    39	0.0818786621094
    40	0.0826225280762
    41	0.0833511352539
    42	0.0843544006348
    43	0.0860443115234
    44	0.0876274108887
    45	0.089412689209
    46	0.0911483764648
    47	0.0928611755371
    48	0.094539642334
    49	0.0961990356445
    50	0.0978469848633
    51	0.0993537902832
    52	0.100963592529
    53	0.102607727051
    54	0.104232788086
    55	0.105754852295
    56	0.107196807861
    57	0.108573913574
    58	0.109867095947
    59	0.111045837402
    60	0.112049102783
    61	0.112777709961

Measurement: vin_mean2
  step	AVG(V(VDC2))	FROM	TO
     1	25.8702164934	0	0.0001
     2	25.6866004617	0	0.0001
     3	25.5002556007	0	0.0001
     4	25.311064978	0	0.0001
     5	25.1187658491	0	0.0001
     6	24.924298497	0	0.0001
     7	24.7280891478	0	0.0001
     8	24.5287241898	0	0.0001
     9	24.3276413548	0	0.0001
    10	24.1244310047	0	0.0001
    11	23.9197318237	0	0.0001
    12	23.7133909237	0	0.0001
    13	23.5054853363	0	0.0001
    14	23.2964378132	0	0.0001
    15	23.0866296128	0	0.0001
    16	22.875397413	0	0.0001
    17	22.6643077245	0	0.0001
    18	22.4525481182	0	0.0001
    19	22.2386208424	0	0.0001
    20	22.0234114276	0	0.0001
    21	21.8010545059	0	0.0001
    22	21.5721679476	0	0.0001
    23	21.3330371602	0	0.0001
    24	21.0826319261	0	0.0001
    25	20.8183487557	0	0.0001
    26	20.5446958357	0	0.0001
    27	20.2635253581	0	0.0001
    28	19.9768721865	0	0.0001
    29	19.6911404585	0	0.0001
    30	19.4079965098	0	0.0001
    31	19.1311662038	0	0.0001
    32	18.8603898372	0	0.0001
    33	18.6013169247	0	0.0001
    34	18.3517684397	0	0.0001
    35	18.115058948	0	0.0001
    36	17.8881467496	0	0.0001
    37	17.6724785259	0	0.0001
    38	17.4648400839	0	0.0001
    39	17.269595342	0	0.0001
    40	17.0808802334	0	0.0001
    41	16.9024979685	0	0.0001
    42	16.7281117453	0	0.0001
    43	16.5617134444	0	0.0001
    44	16.3987116904	0	0.0001
    45	16.2416235459	0	0.0001
    46	16.0880737613	0	0.0001
    47	15.9356884414	0	0.0001
    48	15.7872045665	0	0.0001
    49	15.6397263965	0	0.0001
    50	15.491504666	0	0.0001
    51	15.3464938686	0	0.0001
    52	15.2014538007	0	0.0001
    53	15.0531540392	0	0.0001
    54	14.9056424658	0	0.0001
    55	14.7552922746	0	0.0001
    56	14.6037699173	0	0.0001
    57	14.4484208603	0	0.0001
    58	14.2912621631	0	0.0001
    59	14.1306756718	0	0.0001
    60	13.9655019321	0	0.0001
    61	13.797086571	0	0.0001

Measurement: vin_max2
  step	MAX(V(VDC2))	FROM	TO
     1	25.881269455	0	0.0001
     2	25.697687149	0	0.0001
     3	25.5113811493	0	0.0001
     4	25.3222122192	0	0.0001
     5	25.1299266815	0	0.0001
     6	24.9355258942	0	0.0001
     7	24.7392807007	0	0.0001
     8	24.539937973	0	0.0001
     9	24.3388500214	0	0.0001
    10	24.1357097626	0	0.0001
    11	23.931022644	0	0.0001
    12	23.7246932983	0	0.0001
    13	23.5167980194	0	0.0001
    14	23.3076286316	0	0.0001
    15	23.0978488922	0	0.0001
    16	22.8865432739	0	0.0001
    17	22.6756000519	0	0.0001
    18	22.4645328522	0	0.0001
    19	22.2518901825	0	0.0001
    20	22.0392246246	0	0.0001
    21	21.8208827972	0	0.0001
    22	21.5966758728	0	0.0001
    23	21.3626804352	0	0.0001
    24	21.1156768799	0	0.0001
    25	20.8518295288	0	0.0001
    26	20.5734558105	0	0.0001
    27	20.3092193604	0	0.0001
    28	20.053352356	0	0.0001
    29	19.8076629639	0	0.0001
    30	19.5717811584	0	0.0001
    31	19.3501815796	0	0.0001
    32	19.1403064728	0	0.0001
    33	18.9473361969	0	0.0001
    34	18.7677612305	0	0.0001
    35	18.6008968353	0	0.0001
    36	18.4462795258	0	0.0001
    37	18.3010005951	0	0.0001
    38	18.1643276215	0	0.0001
    39	18.0364055634	0	0.0001
    40	17.9141941071	0	0.0001
    41	17.7989845276	0	0.0001
    42	17.6867542267	0	0.0001
    43	17.578830719	0	0.0001
    44	17.4724140167	0	0.0001
    45	17.3684902191	0	0.0001
    46	17.2654190063	0	0.0001
    47	17.1622886658	0	0.0001
    48	17.0597019196	0	0.0001
    49	16.9564800262	0	0.0001
    50	16.8498134613	0	0.0001
    51	16.7443637848	0	0.0001
    52	16.6379165649	0	0.0001
    53	16.5246257782	0	0.0001
    54	16.4112262726	0	0.0001
    55	16.2941055298	0	0.0001
    56	16.1732120514	0	0.0001
    57	16.0466079712	0	0.0001
    58	15.9166297913	0	0.0001
    59	15.7808113098	0	0.0001
    60	15.636505127	0	0.0001
    61	15.4868574142	0	0.0001

Measurement: vin_min2
  step	MIN(V(VDC2))	FROM	TO
     1	25.8610630035	0	0.0001
     2	25.6773281097	0	0.0001
     3	25.4908695221	0	0.0001
     4	25.3015556335	0	0.0001
     5	25.1091442108	0	0.0001
     6	24.9145565033	0	0.0001
     7	24.7182769775	0	0.0001
     8	24.5187892914	0	0.0001
     9	24.3176269531	0	0.0001
    10	24.1142749786	0	0.0001
    11	23.9094944	0	0.0001
    12	23.7030067444	0	0.0001
    13	23.494972229	0	0.0001
    14	23.2859725952	0	0.0001
    15	23.0759391785	0	0.0001
    16	22.8647594452	0	0.0001
    17	22.6534233093	0	0.0001
    18	22.4408473969	0	0.0001
    19	22.225818634	0	0.0001
    20	22.0084991455	0	0.0001
    21	21.7835655212	0	0.0001
    22	21.5521907806	0	0.0001
    23	21.3113517761	0	0.0001
    24	21.0611686707	0	0.0001
    25	20.79737854	0	0.0001
    26	20.5225734711	0	0.0001
    27	20.2368087769	0	0.0001
    28	19.9398040771	0	0.0001
    29	19.6354808807	0	0.0001
    30	19.3244857788	0	0.0001
    31	19.008441925	0	0.0001
    32	18.6876316071	0	0.0001
    33	18.3716239929	0	0.0001
    34	18.0592575073	0	0.0001
    35	17.7568702698	0	0.0001
    36	17.45977211	0	0.0001
    37	17.1733837128	0	0.0001
    38	16.8930683136	0	0.0001
    39	16.6257896423	0	0.0001
    40	16.3635883331	0	0.0001
    41	16.112455368	0	0.0001
    42	15.8656578064	0	0.0001
    43	15.628663063	0	0.0001
    44	15.3962478638	0	0.0001
    45	15.1719636917	0	0.0001
    46	14.9530935287	0	0.0001
    47	14.7363471985	0	0.0001
    48	14.5263624191	0	0.0001
    49	14.3185529709	0	0.0001
    50	14.1129236221	0	0.0001
    51	13.9118280411	0	0.0001
    52	13.7116603851	0	0.0001
    53	13.5125818253	0	0.0001
    54	13.3151473999	0	0.0001
    55	13.1163406372	0	0.0001
    56	12.9193334579	0	0.0001
    57	12.7211990356	0	0.0001
    58	12.5232429504	0	0.0001
    59	12.3251943588	0	0.0001
    60	12.1274251938	0	0.0001
    61	11.9295349121	0	0.0001

Measurement: vin_pp2
  step	Vin_max2 - Vin_min2
     1	0.020206451416
     2	0.0203590393066
     3	0.0205116271973
     4	0.0206565856934
     5	0.0207824707031
     6	0.0209693908691
     7	0.0210037231445
     8	0.0211486816406
     9	0.0212230682373
    10	0.0214347839355
    11	0.0215282440186
    12	0.0216865539551
    13	0.0218257904053
    14	0.021656036377
    15	0.0219097137451
    16	0.0217838287354
    17	0.0221767425537
    18	0.0236854553223
    19	0.0260715484619
    20	0.030725479126
    21	0.037317276001
    22	0.0444850921631
    23	0.0513286590576
    24	0.0545082092285
    25	0.0544509887695
    26	0.0508823394775
    27	0.0724105834961
    28	0.113548278809
    29	0.17218208313
    30	0.247295379639
    31	0.341739654541
    32	0.452674865723
    33	0.575712203979
    34	0.708503723145
    35	0.844026565552
    36	0.986507415771
    37	1.12761688232
    38	1.27125930786
    39	1.41061592102
    40	1.55060577393
    41	1.68652915955
    42	1.82109642029
    43	1.95016765594
    44	2.07616615295
    45	2.1965265274
    46	2.3123254776
    47	2.42594146729
    48	2.53333950043
    49	2.63792705536
    50	2.73688983917
    51	2.83253574371
    52	2.92625617981
    53	3.01204395294
    54	3.09607887268
    55	3.17776489258
    56	3.25387859344
    57	3.32540893555
    58	3.39338684082
    59	3.45561695099
    60	3.50907993317
    61	3.55732250214

Measurement: iin_mean2
  step	AVG(Ix(U6:1))	FROM	TO
     1	-1.39008231755	0	0.0001
     2	-0.422033642769	0	0.0001
     3	0.449629393757	0	0.0001
     4	1.22913761105	0	0.0001
     5	1.92229950399	0	0.0001
     6	2.53595892687	0	0.0001
     7	3.07409624973	0	0.0001
     8	3.5456485509	0	0.0001
     9	3.95513669066	0	0.0001
    10	4.3084186755	0	0.0001
    11	4.61443292712	0	0.0001
    12	4.87555377054	0	0.0001
    13	5.10009280109	0	0.0001
    14	5.29104513908	0	0.0001
    15	5.45131910552	0	0.0001
    16	5.58995523686	0	0.0001
    17	5.70460846332	0	0.0001
    18	5.802129059	0	0.0001
    19	5.88217138711	0	0.0001
    20	5.94548719569	0	0.0001
    21	6.00365148312	0	0.0001
    22	6.05215349398	0	0.0001
    23	6.10658446278	0	0.0001
    24	6.17206467962	0	0.0001
    25	6.25565715743	0	0.0001
    26	6.36082710011	0	0.0001
    27	6.49155479416	0	0.0001
    28	6.65126088909	0	0.0001
    29	6.82796859646	0	0.0001
    30	7.03548394829	0	0.0001
    31	7.25237562519	0	0.0001
    32	7.4849807597	0	0.0001
    33	7.72774389773	0	0.0001
    34	7.98175047222	0	0.0001
    35	8.24037757011	0	0.0001
    36	8.49847546406	0	0.0001
    37	8.75819949692	0	0.0001
    38	9.01156573246	0	0.0001
    39	9.26873621595	0	0.0001
    40	9.51968037141	0	0.0001
    41	9.76647373086	0	0.0001
    42	10.0045771953	0	0.0001
    43	10.2414553507	0	0.0001
    44	10.4663870847	0	0.0001
    45	10.693639851	0	0.0001
    46	10.9132109541	0	0.0001
    47	11.1242008748	0	0.0001
    48	11.3302597476	0	0.0001
    49	11.5365758236	0	0.0001
    50	11.7403073543	0	0.0001
    51	11.9322474846	0	0.0001
    52	12.1205642347	0	0.0001
    53	12.3086110695	0	0.0001
    54	12.4863507121	0	0.0001
    55	12.6596076101	0	0.0001
    56	12.8190458317	0	0.0001
    57	12.9781942847	0	0.0001
    58	13.1222128236	0	0.0001
    59	13.2513293974	0	0.0001
    60	13.3640856808	0	0.0001
    61	13.4549064681	0	0.0001

Measurement: iin_max2
  step	MAX(Ix(U6:1))	FROM	TO
     1	0.928953409195	0	0.0001
     2	1.89399504662	0	0.0001
     3	2.78740572929	0	0.0001
     4	3.54876995087	0	0.0001
     5	4.27788066864	0	0.0001
     6	4.87045574188	0	0.0001
     7	5.42722463608	0	0.0001
     8	5.91042661667	0	0.0001
     9	6.33270931244	0	0.0001
    10	6.67881345749	0	0.0001
    11	6.98114109039	0	0.0001
    12	7.26680231094	0	0.0001
    13	7.48388671875	0	0.0001
    14	7.6765499115	0	0.0001
    15	7.84179925919	0	0.0001
    16	7.98270797729	0	0.0001
    17	8.11114120483	0	0.0001
    18	8.21272087097	0	0.0001
    19	8.29800796509	0	0.0001
    20	8.3933172226	0	0.0001
    21	8.46500778198	0	0.0001
    22	8.54690361023	0	0.0001
    23	8.63087558746	0	0.0001
    24	8.74091720581	0	0.0001
    25	8.91627979279	0	0.0001
    26	9.12123775482	0	0.0001
    27	9.32262420654	0	0.0001
    28	9.51718521118	0	0.0001
    29	9.75376033783	0	0.0001
    30	9.99044036865	0	0.0001
    31	10.2770490646	0	0.0001
    32	10.5042476654	0	0.0001
    33	10.755771637	0	0.0001
    34	11.0286750793	0	0.0001
    35	11.2811317444	0	0.0001
    36	11.5372161865	0	0.0001
    37	11.8118572235	0	0.0001
    38	12.0432090759	0	0.0001
    39	12.3024168015	0	0.0001
    40	12.5594320297	0	0.0001
    41	12.8199634552	0	0.0001
    42	13.0531368256	0	0.0001
    43	13.2821083069	0	0.0001
    44	13.5344753265	0	0.0001
    45	13.7780513763	0	0.0001
    46	14.0186538696	0	0.0001
    47	14.2857952118	0	0.0001
    48	14.48092556	0	0.0001
    49	14.7034139633	0	0.0001
    50	14.9564228058	0	0.0001
    51	15.1708965302	0	0.0001
    52	15.3992328644	0	0.0001
    53	15.639509201	0	0.0001
    54	15.8474330902	0	0.0001
    55	16.0168247223	0	0.0001
    56	16.1904315948	0	0.0001
    57	16.3712177277	0	0.0001
    58	16.5877113342	0	0.0001
    59	16.7256126404	0	0.0001
    60	16.8343162537	0	0.0001
    61	16.949836731	0	0.0001

Measurement: iin_min2
  step	MIN(Ix(U6:1))	FROM	TO
     1	-3.70998668671	0	0.0001
     2	-2.73486280441	0	0.0001
     3	-1.88316512108	0	0.0001
     4	-1.08219349384	0	0.0001
     5	-0.427217453718	0	0.0001
     6	0.20625911653	0	0.0001
     7	0.733477890491	0	0.0001
     8	1.1959438324	0	0.0001
     9	1.58396196365	0	0.0001
    10	1.94583892822	0	0.0001
    11	2.25521874428	0	0.0001
    12	2.49870538712	0	0.0001
    13	2.73165464401	0	0.0001
    14	2.91875267029	0	0.0001
    15	3.06789970398	0	0.0001
    16	3.21217179298	0	0.0001
    17	3.31243395805	0	0.0001
    18	3.40505099297	0	0.0001
    19	3.48954439163	0	0.0001
    20	3.52289843559	0	0.0001
    21	3.55080485344	0	0.0001
    22	3.58339357376	0	0.0001
    23	3.57492446899	0	0.0001
    24	3.55906820297	0	0.0001
    25	3.53488254547	0	0.0001
    26	3.52334547043	0	0.0001
    27	3.52646040916	0	0.0001
    28	3.54975676537	0	0.0001
    29	3.58925175667	0	0.0001
    30	3.64926505089	0	0.0001
    31	3.76624488831	0	0.0001
    32	3.89181256294	0	0.0001
    33	4.04450654984	0	0.0001
    34	4.21919965744	0	0.0001
    35	4.41853046417	0	0.0001
    36	4.64122247696	0	0.0001
    37	4.87481355667	0	0.0001
    38	5.11847400665	0	0.0001
    39	5.35387706757	0	0.0001
    40	5.64043855667	0	0.0001
    41	5.90179347992	0	0.0001
    42	6.18131971359	0	0.0001
    43	6.4791560173	0	0.0001
    44	6.76557588577	0	0.0001
    45	7.02965450287	0	0.0001
    46	7.31976127625	0	0.0001
    47	7.60730314255	0	0.0001
    48	7.73046255112	0	0.0001
    49	7.82197904587	0	0.0001
    50	7.87536096573	0	0.0001
    51	7.91632413864	0	0.0001
    52	7.96533060074	0	0.0001
    53	8.00734519958	0	0.0001
    54	8.06807899475	0	0.0001
    55	8.11742782593	0	0.0001
    56	8.15601158142	0	0.0001
    57	8.15323734283	0	0.0001
    58	8.24043273926	0	0.0001
    59	8.24217224121	0	0.0001
    60	8.3129234314	0	0.0001
    61	8.32616710663	0	0.0001

Measurement: iin_pp2
  step	Iin_max2 - Iin_min2
     1	4.6389400959
     2	4.62885785103
     3	4.67057085037
     4	4.63096344471
     5	4.70509812236
     6	4.66419662535
     7	4.69374674559
     8	4.71448278427
     9	4.74874734879
    10	4.73297452927
    11	4.72592234612
    12	4.76809692383
    13	4.75223207474
    14	4.75779724121
    15	4.77389955521
    16	4.77053618431
    17	4.79870724678
    18	4.80766987801
    19	4.80846357346
    20	4.870418787
    21	4.91420292854
    22	4.96351003647
    23	5.05595111847
    24	5.18184900284
    25	5.38139724731
    26	5.59789228439
    27	5.79616379738
    28	5.96742844582
    29	6.16450858116
    30	6.34117531776
    31	6.51080417633
    32	6.61243510246
    33	6.71126508713
    34	6.80947542191
    35	6.86260128021
    36	6.89599370956
    37	6.93704366684
    38	6.92473506927
    39	6.94853973389
    40	6.91899347305
    41	6.91816997528
    42	6.87181711197
    43	6.80295228958
    44	6.76889944077
    45	6.74839687347
    46	6.69889259338
    47	6.67849206924
    48	6.75046300888
    49	6.88143491745
    50	7.08106184006
    51	7.25457239151
    52	7.43390226364
    53	7.63216400146
    54	7.77935409546
    55	7.89939689636
    56	8.03442001343
    57	8.21798038483
    58	8.34727859497
    59	8.48344039917
    60	8.52139282227
    61	8.62366962433

Measurement: pin_mean2
  step	Vin_mean2 * Iin_mean2
     1	-35.9617304985
     2	-10.8406095632
     3	11.4656644664
     4	31.1107819403
     5	48.2857911327
     6	63.2069972694
     7	76.0165261122
     8	86.970235379
     9	96.2191469195
    10	103.938149076
    11	110.375998135
    12	115.61591253
    13	119.88015655
    14	123.26250405
    15	125.85258509
    16	127.872447564
    17	129.29100166
    18	130.272581885
    19	130.811379208
    20	130.939910649
    21	130.885933218
    22	130.558071617
    23	130.271993266
    24	130.123367865
    25	130.232452399
    26	130.681258035
    27	131.541785185
    28	132.87138866
    29	134.450488679
    30	136.544647914
    31	138.746403458
    32	141.169655052
    33	143.746213354
    34	146.47923641
    35	149.274925436
    36	152.021976249
    37	154.779092535
    38	157.385554423
    39	160.067323782
    40	162.604520284
    41	165.077802395
    42	167.357685288
    43	169.616048771
    44	171.635264242
    45	173.682072796
    46	175.572542803
    47	177.2717993
    48	178.873128427
    49	180.428889434
    50	181.875026159
    51	183.118162862
    52	184.250197252
    53	185.283418438
    54	186.117079418
    55	186.796210369
    56	187.206395886
    57	187.514413032
    58	187.532983622
    59	187.250237935
    60	186.636164396
    61	185.638509344

Measurement: iout_mean2
  step	AVG(I(V3))	FROM	TO
     1	-0.845697354226	0	0.0001
     2	-0.262488538619	0	0.0001
     3	0.254212707676	0	0.0001
     4	0.708282947183	0	0.0001
     5	1.10437109191	0	0.0001
     6	1.44790512647	0	0.0001
     7	1.74229922415	0	0.0001
     8	1.99351936533	0	0.0001
     9	2.20544492806	0	0.0001
    10	2.38197458627	0	0.0001
    11	2.528965547	0	0.0001
    12	2.64830346998	0	0.0001
    13	2.74528458692	0	0.0001
    14	2.82213647366	0	0.0001
    15	2.88063686118	0	0.0001
    16	2.92625702299	0	0.0001
    17	2.95807596518	0	0.0001
    18	2.9797101297	0	0.0001
    19	2.99119981513	0	0.0001
    20	2.99314583662	0	0.0001
    21	2.99112655387	0	0.0001
    22	2.98292335062	0	0.0001
    23	2.97604959127	0	0.0001
    24	2.9727849924	0	0.0001
    25	2.97676060538	0	0.0001
    26	2.98960063237	0	0.0001
    27	3.01335255305	0	0.0001
    28	3.04915192104	0	0.0001
    29	3.09148336349	0	0.0001
    30	3.14646562341	0	0.0001
    31	3.20484576941	0	0.0001
    32	3.26852370446	0	0.0001
    33	3.33541000265	0	0.0001
    34	3.40544893063	0	0.0001
    35	3.47594851737	0	0.0001
    36	3.544773802	0	0.0001
    37	3.61204195106	0	0.0001
    38	3.67509150102	0	0.0001
    39	3.73703543791	0	0.0001
    40	3.79519815703	0	0.0001
    41	3.8492472097	0	0.0001
    42	3.89787668563	0	0.0001
    43	3.94377933502	0	0.0001
    44	3.98304756732	0	0.0001
    45	4.0209075938	0	0.0001
    46	4.05364347396	0	0.0001
    47	4.08117988152	0	0.0001
    48	4.10501249002	0	0.0001
    49	4.12648322178	0	0.0001
    50	4.14480415195	0	0.0001
    51	4.15723413813	0	0.0001
    52	4.16564684974	0	0.0001
    53	4.17219485954	0	0.0001
    54	4.17352898965	0	0.0001
    55	4.17092898525	0	0.0001
    56	4.16206101395	0	0.0001
    57	4.15123438267	0	0.0001
    58	4.13372968899	0	0.0001
    59	4.10992956986	0	0.0001
    60	4.07977239125	0	0.0001
    61	4.04153382211	0	0.0001

Measurement: iout_max2
  step	MAX(I(V3))	FROM	TO
     1	0.65152323246	0	0.0001
     2	1.62709522247	0	0.0001
     3	2.59183955193	0	0.0001
     4	3.45780301094	0	0.0001
     5	4.22792100906	0	0.0001
     6	4.90763711929	0	0.0001
     7	5.50377845764	0	0.0001
     8	6.02523040771	0	0.0001
     9	6.4748210907	0	0.0001
    10	6.8618888855	0	0.0001
    11	7.19565820694	0	0.0001
    12	7.47801160812	0	0.0001
    13	7.71891641617	0	0.0001
    14	7.92326545715	0	0.0001
    15	8.09294891357	0	0.0001
    16	8.23580551147	0	0.0001
    17	8.35346889496	0	0.0001
    18	8.45372390747	0	0.0001
    19	8.53974151611	0	0.0001
    20	8.6165895462	0	0.0001
    21	8.68511962891	0	0.0001
    22	8.76431369781	0	0.0001
    23	8.86478424072	0	0.0001
    24	8.98964595795	0	0.0001
    25	9.14572715759	0	0.0001
    26	9.32446956635	0	0.0001
    27	9.52884292603	0	0.0001
    28	9.75856781006	0	0.0001
    29	9.99754810333	0	0.0001
    30	10.2532730103	0	0.0001
    31	10.4978265762	0	0.0001
    32	10.7447032928	0	0.0001
    33	11.0018749237	0	0.0001
    34	11.2671098709	0	0.0001
    35	11.5188236237	0	0.0001
    36	11.7755203247	0	0.0001
    37	12.0366287231	0	0.0001
    38	12.2824020386	0	0.0001
    39	12.5270328522	0	0.0001
    40	12.7811031342	0	0.0001
    41	13.0344991684	0	0.0001
    42	13.2746181488	0	0.0001
    43	13.506729126	0	0.0001
    44	13.7228555679	0	0.0001
    45	13.9698905945	0	0.0001
    46	14.2094049454	0	0.0001
    47	14.4392023087	0	0.0001
    48	14.6600456238	0	0.0001
    49	14.879535675	0	0.0001
    50	15.0941123962	0	0.0001
    51	15.2943572998	0	0.0001
    52	15.5004653931	0	0.0001
    53	15.7182197571	0	0.0001
    54	15.9245033264	0	0.0001
    55	16.1179656982	0	0.0001
    56	16.295343399	0	0.0001
    57	16.4700317383	0	0.0001
    58	16.6214790344	0	0.0001
    59	16.756275177	0	0.0001
    60	16.8688430786	0	0.0001
    61	16.9507751465	0	0.0001

Measurement: iout_min2
  step	MIN(I(V3))	FROM	TO
     1	-3.64540243149	0	0.0001
     2	-3.4890460968	0	0.0001
     3	-3.33994913101	0	0.0001
     4	-3.22909426689	0	0.0001
     5	-3.1095893383	0	0.0001
     6	-2.98907995224	0	0.0001
     7	-2.80159854889	0	0.0001
     8	-2.62425065041	0	0.0001
     9	-2.47014093399	0	0.0001
    10	-2.3377122879	0	0.0001
    11	-2.22886538506	0	0.0001
    12	-2.13190078735	0	0.0001
    13	-2.05287051201	0	0.0001
    14	-1.98671841621	0	0.0001
    15	-1.93067705631	0	0.0001
    16	-1.88643312454	0	0.0001
    17	-1.84643697739	0	0.0001
    18	-1.81601846218	0	0.0001
    19	-1.79346823692	0	0.0001
    20	-1.77967083454	0	0.0001
    21	-1.77156662941	0	0.0001
    22	-1.78111672401	0	0.0001
    23	-1.79642176628	0	0.0001
    24	-1.81872272491	0	0.0001
    25	-1.84583377838	0	0.0001
    26	-1.86114084721	0	0.0001
    27	-1.87852549553	0	0.0001
    28	-1.88326978683	0	0.0001
    29	-1.88370490074	0	0.0001
    30	-1.87233436108	0	0.0001
    31	-1.84346985817	0	0.0001
    32	-1.7967145443	0	0.0001
    33	-1.73845672607	0	0.0001
    34	-1.66488075256	0	0.0001
    35	-1.57897496223	0	0.0001
    36	-1.4681147337	0	0.0001
    37	-1.36139988899	0	0.0001
    38	-1.24551355839	0	0.0001
    39	-1.11969411373	0	0.0001
    40	-0.989034235477	0	0.0001
    41	-0.857755064964	0	0.0001
    42	-0.78457647562	0	0.0001
    43	-0.834185779095	0	0.0001
    44	-0.88201880455	0	0.0001
    45	-0.932203233242	0	0.0001
    46	-0.982367277145	0	0.0001
    47	-1.03763544559	0	0.0001
    48	-1.09676396847	0	0.0001
    49	-1.15373051167	0	0.0001
    50	-1.21337890625	0	0.0001
    51	-1.26452207565	0	0.0001
    52	-1.32682693005	0	0.0001
    53	-1.38301873207	0	0.0001
    54	-1.44785368443	0	0.0001
    55	-1.50771152973	0	0.0001
    56	-1.57110762596	0	0.0001
    57	-1.62558972836	0	0.0001
    58	-1.68964779377	0	0.0001
    59	-1.75121879578	0	0.0001
    60	-1.80622661114	0	0.0001
    61	-1.84546339512	0	0.0001

Measurement: iout_pp2
  step	Iout_max2 - Iout_min2
     1	4.29692566395
     2	5.11614131927
     3	5.93178868294
     4	6.68689727783
     5	7.33751034737
     6	7.89671707153
     7	8.30537700653
     8	8.64948105812
     9	8.94496202469
    10	9.1996011734
    11	9.424523592
    12	9.60991239548
    13	9.77178692818
    14	9.90998387337
    15	10.0236259699
    16	10.122238636
    17	10.1999058723
    18	10.2697423697
    19	10.333209753
    20	10.3962603807
    21	10.4566862583
    22	10.5454304218
    23	10.661206007
    24	10.8083686829
    25	10.991560936
    26	11.1856104136
    27	11.4073684216
    28	11.6418375969
    29	11.8812530041
    30	12.1256073713
    31	12.3412964344
    32	12.5414178371
    33	12.7403316498
    34	12.9319906235
    35	13.0977985859
    36	13.2436350584
    37	13.3980286121
    38	13.527915597
    39	13.6467269659
    40	13.7701373696
    41	13.8922542334
    42	14.0591946244
    43	14.3409149051
    44	14.6048743725
    45	14.9020938277
    46	15.1917722225
    47	15.4768377542
    48	15.7568095922
    49	16.0332661867
    50	16.3074913025
    51	16.5588793755
    52	16.8272923231
    53	17.1012384892
    54	17.3723570108
    55	17.625677228
    56	17.866451025
    57	18.0956214666
    58	18.3111268282
    59	18.5074939728
    60	18.6750696898
    61	18.7962385416

Measurement: pout_mean2
  step	Vout_mean2 * Iout_mean2
     1	-36.5298344805
     2	-11.339091466
     3	10.9823767159
     4	30.6008332972
     5	47.7161489704
     6	62.5620800262
     7	75.2855401086
     8	86.1438812963
     9	95.3044047914
    10	102.93534497
    11	109.289685623
    12	114.448790897
    13	118.641513658
    14	121.964082395
    15	124.493300819
    16	126.46568129
    17	127.841382964
    18	128.776749653
    19	129.273515688
    20	129.357653654
    21	129.270348122
    22	128.915675737
    23	128.618483569
    24	128.477336435
    25	128.649224797
    26	129.204373619
    27	130.231312046
    28	131.779146932
    29	133.609424924
    30	135.986716437
    31	138.51096346
    32	141.264323477
    33	144.156461846
    34	147.184976215
    35	150.233469222
    36	153.209620785
    37	156.118493336
    38	158.844990711
    39	161.523723479
    40	164.038981554
    41	166.376379551
    42	168.479433447
    43	170.464587611
    44	172.162842952
    45	173.800214238
    46	175.215990245
    47	176.406907027
    48	177.437646368
    49	178.366242366
    50	179.158615821
    51	179.696210286
    52	180.060059614
    53	180.343261187
    54	180.400962444
    55	180.288511963
    56	179.904972216
    57	179.436721902
    58	178.679648915
    59	177.650306548
    60	176.34603461
    61	174.69226515

Measurement: loss2
  step	100*(Pin_mean2 - Pout_mean2)/Pin_mean2
     1	-1.57974595262
     2	-4.5982829645
     3	4.21508715801
     4	1.63913798152
     5	1.17973041135
     6	1.0203257092
     7	0.961614587037
     8	0.950157348831
     9	0.950686175643
    10	0.964808508947
    11	0.984192696501
    12	1.00948183291
    13	1.03323429603
    14	1.05337926159
    15	1.08006066806
    16	1.10013243708
    17	1.12120617662
    18	1.14823258327
    19	1.1756343593
    20	1.20838404976
    21	1.23434585828
    22	1.25798111104
    23	1.26927488847
    24	1.26497758024
    25	1.21569361008
    26	1.13014248429
    27	0.996240956178
    28	0.822029286739
    29	0.625556487893
    30	0.408607356459
    31	0.16969088374
    32	-0.0670600388258
    33	-0.285397772934
    34	-0.481801941958
    35	-0.642133153347
    36	-0.781232138032
    37	-0.865362872288
    38	-0.927300026479
    39	-0.909866963113
    40	-0.882177977961
    41	-0.786645531326
    42	-0.670269881907
    43	-0.500270372753
    44	-0.307383632231
    45	-0.068021667569
    46	0.203079907899
    47	0.487890502643
    48	0.802514090485
    49	1.14319113418
    50	1.49355873428
    51	1.86871281489
    52	2.27415639194
    53	2.66627056689
    54	3.0712479434
    55	3.48384926715
    56	3.90019990253
    57	4.30777080008
    58	4.72094803612
    59	5.12679262418
    60	5.51347045677
    61	5.89653743352
