LTspice 26.0.1 for Windows
Circuit: C:\Users\afons\OneDrive - Universidade de Lisboa\UNI\Tese\LTSpice sims\EPC23102_Behavioral_Model_LTSPICE\EPC23102_Behavioral_Model_LTSPICE\combined.net
Start Time: Fri Apr 10 17:04:23 2026

.step d=0.2
solver = Normal
Maximum thread count: 12
tnom = 27
temp = 25
method = trap
Per .tran options, skipping operating point for transient analysis.

.step d=0.225

.step d=0.25

.step d=0.275

.step d=0.3

.step d=0.325

.step d=0.35

.step d=0.375

.step d=0.4

.step d=0.425

.step d=0.45

.step d=0.475

.step d=0.5

.step d=0.525

.step d=0.55

.step d=0.575

.step d=0.6

.step d=0.625

.step d=0.65

.step d=0.675

.step d=0.7
Total elapsed time: 815.728 seconds.

Files loaded:
C:\Users\afons\OneDrive - Universidade de Lisboa\UNI\Tese\LTSpice sims\EPC23102_Behavioral_Model_LTSPICE\EPC23102_Behavioral_Model_LTSPICE\combined.net
C:\Users\afons\OneDrive - Universidade de Lisboa\UNI\Tese\LTSpice sims\EPC23102_Behavioral_Model_LTSPICE\EPC23102_Behavioral_Model_LTSPICE\EPC23102_model.net
C:\Users\afons\OneDrive\Documentos\LTspice\LTSpice_WCAP-ATUL (rev25b)\WCAP-ATUL.lib
C:\Users\afons\OneDrive\Documentos\LTspice\LTSpice_WE-HCF (rev22a)\WE-HCF.lib
C:\Users\afons\OneDrive\Documentos\LTspice\Solar Panel\SolarPanels.lib
C:\Users\afons\OneDrive\Documentos\LTspice\WCAP-HTG5\WCAP-HTG5.lib
C:\Users\afons\AppData\Local\LTspice\lib\cmp\standard.dio


Measurement: vout_mean
  step	AVG(V(Vout))	FROM	TO
     1	42.8315392239	0	0.0001
     2	42.8964120411	0	0.0001
     3	42.9570380308	0	0.0001
     4	43.0128335469	0	0.0001
     5	43.0633106376	0	0.0001
     6	43.1077593808	0	0.0001
     7	43.1452429575	0	0.0001
     8	43.174720951	0	0.0001
     9	43.1956352581	0	0.0001
    10	43.2083388832	0	0.0001
    11	43.2148079698	0	0.0001
    12	43.2173757423	0	0.0001
    13	43.2180186866	0	0.0001
    14	43.2177735821	0	0.0001
    15	43.2161247836	0	0.0001
    16	43.2134740293	0	0.0001
    17	43.2107834912	0	0.0001
    18	43.2084779518	0	0.0001
    19	43.2066232305	0	0.0001
    20	43.2051697694	0	0.0001
    21	43.2041177505	0	0.0001

Measurement: vout_max
  step	MAX(V(Vout))	FROM	TO
     1	43.1355514526	0	0.0001
     2	43.1472129822	0	0.0001
     3	43.158000946	0	0.0001
     4	43.1678352356	0	0.0001
     5	43.1766433716	0	0.0001
     6	43.1843261719	0	0.0001
     7	43.1907424927	0	0.0001
     8	43.1957397461	0	0.0001
     9	43.1992530823	0	0.0001
    10	43.2169837952	0	0.0001
    11	43.2282180786	0	0.0001
    12	43.2336883545	0	0.0001
    13	43.2362060547	0	0.0001
    14	43.2379341125	0	0.0001
    15	43.2377204895	0	0.0001
    16	43.2347640991	0	0.0001
    17	43.2303771973	0	0.0001
    18	43.2256965637	0	0.0001
    19	43.2213134766	0	0.0001
    20	43.2197532654	0	0.0001
    21	43.2187843323	0	0.0001

Measurement: vout_min
  step	MIN(V(Vout))	FROM	TO
     1	42.7502441406	0	0.0001
     2	42.8184967041	0	0.0001
     3	42.885181427	0	0.0001
     4	42.9494400024	0	0.0001
     5	43.0103988647	0	0.0001
     6	43.0667724609	0	0.0001
     7	43.1168060303	0	0.0001
     8	43.1574859619	0	0.0001
     9	43.1737060547	0	0.0001
    10	43.1843681335	0	0.0001
    11	43.190158844	0	0.0001
    12	43.1939201355	0	0.0001
    13	43.1957015991	0	0.0001
    14	43.1959495544	0	0.0001
    15	43.1940040588	0	0.0001
    16	43.1910667419	0	0.0001
    17	43.1887397766	0	0.0001
    18	43.1869392395	0	0.0001
    19	43.1853790283	0	0.0001
    20	43.1839599609	0	0.0001
    21	43.1828422546	0	0.0001

Measurement: vout_pp
  step	Vout_max - Vout_min
     1	0.385307312012
     2	0.328716278076
     3	0.272819519043
     4	0.218395233154
     5	0.166244506836
     6	0.117553710938
     7	0.0739364624023
     8	0.0382537841797
     9	0.0255470275879
    10	0.0326156616211
    11	0.0380592346191
    12	0.0397682189941
    13	0.0405044555664
    14	0.0419845581055
    15	0.0437164306641
    16	0.0436973571777
    17	0.0416374206543
    18	0.0387573242188
    19	0.0359344482422
    20	0.0357933044434
    21	0.0359420776367

Measurement: vin_mean
  step	AVG(V(VDC))	FROM	TO
     1	33.1940862171	0	0.0001
     2	32.3716930069	0	0.0001
     3	31.5230647463	0	0.0001
     4	30.6501638437	0	0.0001
     5	29.7538760061	0	0.0001
     6	28.8322501852	0	0.0001
     7	27.8840587823	0	0.0001
     8	26.908801259	0	0.0001
     9	25.9073638406	0	0.0001
    10	24.8842406956	0	0.0001
    11	23.8306373334	0	0.0001
    12	22.761712395	0	0.0001
    13	21.7071804647	0	0.0001
    14	20.8089516613	0	0.0001
    15	19.9620267795	0	0.0001
    16	18.9448373628	0	0.0001
    17	17.7349136926	0	0.0001
    18	16.4165096497	0	0.0001
    19	15.0596444073	0	0.0001
    20	13.7308581783	0	0.0001
    21	12.4708039322	0	0.0001

Measurement: vin_max
  step	MAX(V(VDC))	FROM	TO
     1	33.2117729187	0	0.0001
     2	32.3902626038	0	0.0001
     3	31.5426158905	0	0.0001
     4	30.6710014343	0	0.0001
     5	29.7757797241	0	0.0001
     6	28.8551712036	0	0.0001
     7	27.9079303741	0	0.0001
     8	26.9333744049	0	0.0001
     9	25.9325504303	0	0.0001
    10	24.9097499847	0	0.0001
    11	23.8564758301	0	0.0001
    12	22.7875366211	0	0.0001
    13	21.7369976044	0	0.0001
    14	20.8900585175	0	0.0001
    15	20.2976303101	0	0.0001
    16	19.7641887665	0	0.0001
    17	19.155298233	0	0.0001
    18	18.4241065979	0	0.0001
    19	17.6133155823	0	0.0001
    20	16.7624835968	0	0.0001
    21	15.8454341888	0	0.0001

Measurement: vin_min
  step	MIN(V(VDC))	FROM	TO
     1	33.182094574	0	0.0001
     2	32.3583106995	0	0.0001
     3	31.5083045959	0	0.0001
     4	30.6340351105	0	0.0001
     5	29.7364959717	0	0.0001
     6	28.813583374	0	0.0001
     7	27.8640956879	0	0.0001
     8	26.8876514435	0	0.0001
     9	25.8850593567	0	0.0001
    10	24.8610095978	0	0.0001
    11	23.8064785004	0	0.0001
    12	22.7366809845	0	0.0001
    13	21.6707134247	0	0.0001
    14	20.6565208435	0	0.0001
    15	19.3781013489	0	0.0001
    16	17.8171424866	0	0.0001
    17	16.1086215973	0	0.0001
    18	14.3785171509	0	0.0001
    19	12.6774206161	0	0.0001
    20	11.0506820679	0	0.0001
    21	9.57773780823	0	0.0001

Measurement: vin_pp
  step	Vin_max - Vin_min
     1	0.0296783447266
     2	0.0319519042969
     3	0.0343112945557
     4	0.0369663238525
     5	0.0392837524414
     6	0.0415878295898
     7	0.0438346862793
     8	0.0457229614258
     9	0.0474910736084
    10	0.0487403869629
    11	0.0499973297119
    12	0.0508556365967
    13	0.0662841796875
    14	0.23353767395
    15	0.919528961182
    16	1.94704627991
    17	3.04667663574
    18	4.04558944702
    19	4.93589496613
    20	5.71180152893
    21	6.26769638062

Measurement: iin_mean
  step	AVG(I(L1))	FROM	TO
     1	-76.8532321688	0	0.0001
     2	-65.3584344664	0	0.0001
     3	-54.0468040836	0	0.0001
     4	-43.0659457282	0	0.0001
     5	-32.5706056195	0	0.0001
     6	-22.7892972091	0	0.0001
     7	-14.0442145806	0	0.0001
     8	-6.73742841038	0	0.0001
     9	-1.20365751554	0	0.0001
    10	2.42419341182	0	0.0001
    11	4.49262931672	0	0.0001
    12	5.52054264885	0	0.0001
    13	6.00947383686	0	0.0001
    14	6.22413071625	0	0.0001
    15	5.92997606671	0	0.0001
    16	5.22526925758	0	0.0001
    17	4.43870971267	0	0.0001
    18	3.73133263919	0	0.0001
    19	3.14042398596	0	0.0001
    20	2.66078359712	0	0.0001
    21	2.31559464316	0	0.0001

Measurement: iin_max
  step	MAX(I(L1))	FROM	TO
     1	-76.3163299561	0	0.0001
     2	-64.7852172852	0	0.0001
     3	-53.4400596619	0	0.0001
     4	-42.4279632568	0	0.0001
     5	-31.9036121368	0	0.0001
     6	-22.0916080475	0	0.0001
     7	-13.3203239441	0	0.0001
     8	-5.99171352386	0	0.0001
     9	-0.440878331661	0	0.0001
    10	3.20051145554	0	0.0001
    11	5.27896881104	0	0.0001
    12	6.31300163269	0	0.0001
    13	6.80947971344	0	0.0001
    14	7.15820837021	0	0.0001
    15	7.13651323318	0	0.0001
    16	6.59693908691	0	0.0001
    17	5.78628158569	0	0.0001
    18	4.91735935211	0	0.0001
    19	4.1305475235	0	0.0001
    20	3.8795363903	0	0.0001
    21	3.71125006676	0	0.0001

Measurement: iin_min
  step	MIN(I(L1))	FROM	TO
     1	-77.3892669678	0	0.0001
     2	-65.9312133789	0	0.0001
     3	-54.6526985168	0	0.0001
     4	-43.7029418945	0	0.0001
     5	-33.2370185852	0	0.0001
     6	-23.4862747192	0	0.0001
     7	-14.7679462433	0	0.0001
     8	-7.4819021225	0	0.0001
     9	-1.96596682072	0	0.0001
    10	1.6477175951	0	0.0001
    11	3.70581936836	0	0.0001
    12	4.72769021988	0	0.0001
    13	5.20579338074	0	0.0001
    14	5.30199670792	0	0.0001
    15	4.83018064499	0	0.0001
    16	4.10390520096	0	0.0001
    17	3.44695472717	0	0.0001
    18	2.82451295853	0	0.0001
    19	2.23247981071	0	0.0001
    20	1.70176124573	0	0.0001
    21	1.29932320118	0	0.0001

Measurement: iin_pp
  step	Iin_max - Iin_min
     1	1.07293701172
     2	1.14599609375
     3	1.21263885498
     4	1.2749786377
     5	1.33340644836
     6	1.39466667175
     7	1.44762229919
     8	1.49018859863
     9	1.52508848906
    10	1.55279386044
    11	1.57314944267
    12	1.58531141281
    13	1.6036863327
    14	1.85621166229
    15	2.3063325882
    16	2.49303388596
    17	2.33932685852
    18	2.09284639359
    19	1.89806771278
    20	2.17777514458
    21	2.41192686558

Measurement: pin_mean
  step	Vin_mean * Iin_mean
     1	-2551.07281467
     2	-2115.76317596
     3	-1703.72090446
     4	-1319.97829265
     5	-969.101761046
     6	-657.066718678
     7	-391.609704918
     8	-181.296122092
     9	-31.1835931946
    10	60.3242123524
    11	107.06221992
    12	125.657004038
    13	130.448733075
    14	129.517635208
    15	118.374341045
    16	98.9918762616
    17	78.7201336606
    18	61.2554582774
    19	47.2936685168
    20	36.5348422153
    21	28.8773267814

Measurement: iout_mean
  step	AVG(I(V1))	FROM	TO
     1	-61.4101294631	0	0.0001
     2	-50.5979946881	0	0.0001
     3	-40.4936610336	0	0.0001
     4	-31.1944080117	0	0.0001
     5	-22.7815632551	0	0.0001
     6	-15.3734370634	0	0.0001
     7	-9.12617366123	0	0.0001
     8	-4.2131746387	0	0.0001
     9	-0.727456827773	0	0.0001
    10	1.38981438149	0	0.0001
    11	2.46799607731	0	0.0001
    12	2.89595551566	0	0.0001
    13	3.00311577638	0	0.0001
    14	2.96226653964	0	0.0001
    15	2.68746497545	0	0.0001
    16	2.2456707538	0	0.0001
    17	1.79724612745	0	0.0001
    18	1.41299362933	0	0.0001
    19	1.1038736117	0	0.0001
    20	0.861630233561	0	0.0001
    21	0.68629108626	0	0.0001

Measurement: iout_max
  step	MAX(I(V1))	FROM	TO
     1	-10.7413291931	0	0.0001
     2	-8.79764270782	0	0.0001
     3	-6.9996304512	0	0.0001
     4	-5.36096096039	0	0.0001
     5	-3.89304757118	0	0.0001
     6	-2.61239957809	0	0.0001
     7	-1.54289066792	0	0.0001
     8	-0.709859251976	0	0.0001
     9	-0.124734409153	0	0.0001
    10	2.83031868935	0	0.0001
    11	4.70296573639	0	0.0001
    12	5.61441373825	0	0.0001
    13	6.0342965126	0	0.0001
    14	6.32226800919	0	0.0001
    15	6.28656816483	0	0.0001
    16	5.79386425018	0	0.0001
    17	5.06266832352	0	0.0001
    18	4.282954216	0	0.0001
    19	3.55230093002	0	0.0001
    20	3.29229807854	0	0.0001
    21	3.13062000275	0	0.0001

Measurement: iout_min
  step	MIN(I(V1))	FROM	TO
     1	-74.9590682983	0	0.0001
     2	-63.5836219788	0	0.0001
     3	-52.4695320129	0	0.0001
     4	-41.7599716187	0	0.0001
     5	-31.6000232697	0	0.0001
     6	-22.2045936584	0	0.0001
     7	-13.8658876419	0	0.0001
     8	-7.08569002151	0	0.0001
     9	-4.38239526749	0	0.0001
    10	-2.60529661179	0	0.0001
    11	-1.64011883736	0	0.0001
    12	-1.01352262497	0	0.0001
    13	-0.716167390347	0	0.0001
    14	-0.675246715546	0	0.0001
    15	-0.999474108219	0	0.0001
    16	-1.48906755447	0	0.0001
    17	-1.87647461891	0	0.0001
    18	-2.17683434486	0	0.0001
    19	-2.43687486649	0	0.0001
    20	-2.67356085777	0	0.0001
    21	-2.85970115662	0	0.0001

Measurement: iout_pp
  step	Iout_max - Iout_min
     1	64.2177391052
     2	54.7859792709
     3	45.4699015617
     4	36.3990106583
     5	27.7069756985
     6	19.5921940804
     7	12.322996974
     8	6.37583076954
     9	4.25766085833
    10	5.43561530113
    11	6.34308457375
    12	6.62793636322
    13	6.75046390295
    14	6.99751472473
    15	7.28604227304
    16	7.28293180466
    17	6.93914294243
    18	6.45978856087
    19	5.98917579651
    20	5.96585893631
    21	5.99032115936

Measurement: pout_mean
  step	Vout_mean * Iout_mean
     1	-2630.29036885
     2	-2170.4724286
     3	-1739.48773703
     4	-1341.7598794
     5	-981.049535264
     6	-662.714425784
     7	-393.750979886
     8	-181.902639344
     9	-31.4229597985
    10	60.0515707801
    11	106.653976551
    12	125.155597653
    13	129.788713742
    14	128.0225646
    15	116.14182173
    16	97.0432347978
    17	77.6604132934
    18	61.0533040788
    19	47.694651235
    20	37.2268805194
    21	29.6506009019

Measurement: loss
  step	100*(Pin_mean - Pout_mean)/Pin_mean
     1	-3.10526433121
     2	-2.5857928362
     3	-2.09933636866
     4	-1.65014734491
     5	-1.23287096343
     6	-0.859533278084
     7	-0.546788024021
     8	-0.33454507731
     9	-0.767604305515
    10	0.45196043466
    11	0.381314127108
    12	0.399027804513
    13	0.505960707416
    14	1.15433748114
    15	1.88598246496
    16	1.96848624082
    17	1.34618720513
    18	0.330018261673
    19	-0.84785708276
    20	-1.89418719825
    21	-2.67778983279

Measurement: vout_mean2
  step	AVG(V(Vout2))	FROM	TO
     1	42.698599572	0	0.0001
     2	42.7892066094	0	0.0001
     3	42.8741868741	0	0.0001
     4	42.9523823683	0	0.0001
     5	43.0225407266	0	0.0001
     6	43.0833131066	0	0.0001
     7	43.1330621798	0	0.0001
     8	43.1703458748	0	0.0001
     9	43.1949258184	0	0.0001
    10	43.2086874218	0	0.0001
    11	43.2151737902	0	0.0001
    12	43.2175575476	0	0.0001
    13	43.2179467481	0	0.0001
    14	43.2179376136	0	0.0001
    15	43.2192290755	0	0.0001
    16	43.2212608907	0	0.0001
    17	43.2230954488	0	0.0001
    18	43.2243218651	0	0.0001
    19	43.2249433916	0	0.0001
    20	43.2249723425	0	0.0001
    21	43.224249218	0	0.0001

Measurement: vout_max2
  step	MAX(V(Vout2))	FROM	TO
     1	43.1964683533	0	0.0001
     2	43.2010002136	0	0.0001
     3	43.2044715881	0	0.0001
     4	43.2066421509	0	0.0001
     5	43.2075958252	0	0.0001
     6	43.2075576782	0	0.0001
     7	43.2066345215	0	0.0001
     8	43.2052879333	0	0.0001
     9	43.2039108276	0	0.0001
    10	43.2294464111	0	0.0001
    11	43.2431755066	0	0.0001
    12	43.2494163513	0	0.0001
    13	43.2521095276	0	0.0001
    14	43.255947113	0	0.0001
    15	43.2629852295	0	0.0001
    16	43.270652771	0	0.0001
    17	43.2782058716	0	0.0001
    18	43.2852554321	0	0.0001
    19	43.2917671204	0	0.0001
    20	43.2977714539	0	0.0001
    21	43.3017044067	0	0.0001

Measurement: vout_min2
  step	MIN(V(Vout2))	FROM	TO
     1	42.4590797424	0	0.0001
     2	42.581035614	0	0.0001
     3	42.6996002197	0	0.0001
     4	42.8127403259	0	0.0001
     5	42.9182929993	0	0.0001
     6	43.0134963989	0	0.0001
     7	43.0947227478	0	0.0001
     8	43.1480407715	0	0.0001
     9	43.1781272888	0	0.0001
    10	43.1820640564	0	0.0001
    11	43.1866264343	0	0.0001
    12	43.1886825562	0	0.0001
    13	43.1893692017	0	0.0001
    14	43.1888313293	0	0.0001
    15	43.1889381409	0	0.0001
    16	43.1911697388	0	0.0001
    17	43.1948547363	0	0.0001
    18	43.1941070557	0	0.0001
    19	43.1924133301	0	0.0001
    20	43.190574646	0	0.0001
    21	43.1889266968	0	0.0001

Measurement: vout_pp2
  step	Vout_max2 - Vout_min2
     1	0.73738861084
     2	0.619964599609
     3	0.504871368408
     4	0.393901824951
     5	0.289302825928
     6	0.194061279297
     7	0.111911773682
     8	0.0572471618652
     9	0.0257835388184
    10	0.0473823547363
    11	0.0565490722656
    12	0.060733795166
    13	0.0627403259277
    14	0.0671157836914
    15	0.074047088623
    16	0.0794830322266
    17	0.0833511352539
    18	0.0911483764648
    19	0.0993537902832
    20	0.107196807861
    21	0.112777709961

Measurement: vin_mean2
  step	AVG(V(VDC2))	FROM	TO
     1	31.7609346935	0	0.0001
     2	31.1304254978	0	0.0001
     3	30.4789294666	0	0.0001
     4	29.8048559436	0	0.0001
     5	29.1030979223	0	0.0001
     6	28.3671113566	0	0.0001
     7	27.5889175759	0	0.0001
     8	26.7602884573	0	0.0001
     9	25.8702164934	0	0.0001
    10	24.924298497	0	0.0001
    11	23.9197318237	0	0.0001
    12	22.875397413	0	0.0001
    13	21.8010545059	0	0.0001
    14	20.5446958357	0	0.0001
    15	19.1311662038	0	0.0001
    16	17.8894472838	0	0.0001
    17	16.9024979685	0	0.0001
    18	16.0880737613	0	0.0001
    19	15.3464938686	0	0.0001
    20	14.6037699173	0	0.0001
    21	13.797086571	0	0.0001

Measurement: vin_max2
  step	MAX(V(VDC2))	FROM	TO
     1	31.7706680298	0	0.0001
     2	31.1403083801	0	0.0001
     3	30.488866806	0	0.0001
     4	29.8148403168	0	0.0001
     5	29.1131324768	0	0.0001
     6	28.3774871826	0	0.0001
     7	27.5996685028	0	0.0001
     8	26.7711830139	0	0.0001
     9	25.881269455	0	0.0001
    10	24.9355258942	0	0.0001
    11	23.931022644	0	0.0001
    12	22.8865432739	0	0.0001
    13	21.8208827972	0	0.0001
    14	20.5734558105	0	0.0001
    15	19.3501815796	0	0.0001
    16	18.4476242065	0	0.0001
    17	17.7989845276	0	0.0001
    18	17.2654190063	0	0.0001
    19	16.7443637848	0	0.0001
    20	16.1732120514	0	0.0001
    21	15.4868574142	0	0.0001

Measurement: vin_min2
  step	MIN(V(VDC2))	FROM	TO
     1	31.7548408508	0	0.0001
     2	31.1242237091	0	0.0001
     3	30.4725837708	0	0.0001
     4	29.7983207703	0	0.0001
     5	29.0963191986	0	0.0001
     6	28.3596954346	0	0.0001
     7	27.5808696747	0	0.0001
     8	26.751657486	0	0.0001
     9	25.8610630035	0	0.0001
    10	24.9145565033	0	0.0001
    11	23.9094944	0	0.0001
    12	22.8647594452	0	0.0001
    13	21.7835655212	0	0.0001
    14	20.5225734711	0	0.0001
    15	19.008441925	0	0.0001
    16	17.460811615	0	0.0001
    17	16.112455368	0	0.0001
    18	14.9530935287	0	0.0001
    19	13.9118280411	0	0.0001
    20	12.9193334579	0	0.0001
    21	11.9295349121	0	0.0001

Measurement: vin_pp2
  step	Vin_max2 - Vin_min2
     1	0.0158271789551
     2	0.0160846710205
     3	0.0162830352783
     4	0.0165195465088
     5	0.0168132781982
     6	0.0177917480469
     7	0.018798828125
     8	0.0195255279541
     9	0.020206451416
    10	0.0209693908691
    11	0.0215282440186
    12	0.0217838287354
    13	0.037317276001
    14	0.0508823394775
    15	0.341739654541
    16	0.986812591553
    17	1.68652915955
    18	2.3123254776
    19	2.83253574371
    20	3.25387859344
    21	3.55732250214

Measurement: iin_mean2
  step	AVG(Ix(U6:1))	FROM	TO
     1	-104.556503904	0	0.0001
     2	-88.4164079556	0	0.0001
     3	-72.4553994632	0	0.0001
     4	-56.9563224777	0	0.0001
     5	-42.2684333356	0	0.0001
     6	-28.8139931847	0	0.0001
     7	-17.1548290684	0	0.0001
     8	-7.89142322915	0	0.0001
     9	-1.39008231755	0	0.0001
    10	2.53595892687	0	0.0001
    11	4.61443292712	0	0.0001
    12	5.58995523686	0	0.0001
    13	6.00365148312	0	0.0001
    14	6.36082710011	0	0.0001
    15	7.25237562519	0	0.0001
    16	8.49608824781	0	0.0001
    17	9.76647373086	0	0.0001
    18	10.9132109541	0	0.0001
    19	11.9322474846	0	0.0001
    20	12.8190458317	0	0.0001
    21	13.4549064681	0	0.0001

Measurement: iin_max2
  step	MAX(Ix(U6:1))	FROM	TO
     1	-103.0362854	0	0.0001
     2	-86.7574081421	0	0.0001
     3	-70.6692733765	0	0.0001
     4	-55.0553817749	0	0.0001
     5	-40.2632713318	0	0.0001
     6	-26.7140865326	0	0.0001
     7	-14.9610500336	0	0.0001
     8	-5.61006164551	0	0.0001
     9	0.928953409195	0	0.0001
    10	4.87045574188	0	0.0001
    11	6.98114109039	0	0.0001
    12	7.98270797729	0	0.0001
    13	8.46500778198	0	0.0001
    14	9.12123775482	0	0.0001
    15	10.2770490646	0	0.0001
    16	11.5367708206	0	0.0001
    17	12.8199634552	0	0.0001
    18	14.0186538696	0	0.0001
    19	15.1708965302	0	0.0001
    20	16.1904315948	0	0.0001
    21	16.949836731	0	0.0001

Measurement: iin_min2
  step	MIN(Ix(U6:1))	FROM	TO
     1	-106.076919556	0	0.0001
     2	-90.0765304565	0	0.0001
     3	-74.2458267212	0	0.0001
     4	-58.8530464172	0	0.0001
     5	-44.2791633606	0	0.0001
     6	-30.9205055237	0	0.0001
     7	-19.3553695679	0	0.0001
     8	-10.1781826019	0	0.0001
     9	-3.70998668671	0	0.0001
    10	0.20625911653	0	0.0001
    11	2.25521874428	0	0.0001
    12	3.21217179298	0	0.0001
    13	3.55080485344	0	0.0001
    14	3.52334547043	0	0.0001
    15	3.76624488831	0	0.0001
    16	4.63115501404	0	0.0001
    17	5.90179347992	0	0.0001
    18	7.31976127625	0	0.0001
    19	7.91632413864	0	0.0001
    20	8.15601158142	0	0.0001
    21	8.32616710663	0	0.0001

Measurement: iin_pp2
  step	Iin_max2 - Iin_min2
     1	3.04063415527
     2	3.31912231445
     3	3.57655334473
     4	3.79766464233
     5	4.01589202881
     6	4.20641899109
     7	4.3943195343
     8	4.56812095642
     9	4.6389400959
    10	4.66419662535
    11	4.72592234612
    12	4.77053618431
    13	4.91420292854
    14	5.59789228439
    15	6.51080417633
    16	6.90561580658
    17	6.91816997528
    18	6.69889259338
    19	7.25457239151
    20	8.03442001343
    21	8.62366962433

Measurement: pin_mean2
  step	Vin_mean2 * Iin_mean2
     1	-3320.81229226
     2	-2752.44040064
     3	-2208.36300971
     4	-1697.57498653
     5	-1230.14235439
     6	-817.3697533
     7	-473.283165197
     8	-211.176761951
     9	-35.9617304985
    10	63.2069972694
    11	110.375998135
    12	127.872447564
    13	130.885933218
    14	130.681258035
    15	138.746403458
    16	151.990322828
    17	165.077802395
    18	175.572542803
    19	183.118162862
    20	187.206395886
    21	185.638509344

Measurement: iout_mean2
  step	AVG(I(V3))	FROM	TO
     1	-83.5667368208	0	0.0001
     2	-68.4655675424	0	0.0001
     3	-54.3021891464	0	0.0001
     4	-41.2696050892	0	0.0001
     5	-29.5765431454	0	0.0001
     6	-19.4478161402	0	0.0001
     7	-11.1563036856	0	0.0001
     8	-4.94235477906	0	0.0001
     9	-0.845697354226	0	0.0001
    10	1.44790512647	0	0.0001
    11	2.528965547	0	0.0001
    12	2.92625702299	0	0.0001
    13	2.99112655387	0	0.0001
    14	2.98960063237	0	0.0001
    15	3.20484576941	0	0.0001
    16	3.54348352473	0	0.0001
    17	3.8492472097	0	0.0001
    18	4.05364347396	0	0.0001
    19	4.15723413813	0	0.0001
    20	4.16206101395	0	0.0001
    21	4.04153382211	0	0.0001

Measurement: iout_max2
  step	MAX(I(V3))	FROM	TO
     1	-0.588745951653	0	0.0001
     2	0.166904404759	0	0.0001
     3	0.745541155338	0	0.0001
     4	1.10690975189	0	0.0001
     5	1.2662460804	0	0.0001
     6	1.25931739807	0	0.0001
     7	1.10584139824	0	0.0001
     8	0.881426692009	0	0.0001
     9	0.65152323246	0	0.0001
    10	4.90763711929	0	0.0001
    11	7.19565820694	0	0.0001
    12	8.23580551147	0	0.0001
    13	8.68511962891	0	0.0001
    14	9.32446956635	0	0.0001
    15	10.4978265762	0	0.0001
    16	11.7753305435	0	0.0001
    17	13.0344991684	0	0.0001
    18	14.2094049454	0	0.0001
    19	15.2943572998	0	0.0001
    20	16.295343399	0	0.0001
    21	16.9507751465	0	0.0001

Measurement: iout_min2
  step	MIN(I(V3))	FROM	TO
     1	-123.48651123	0	0.0001
     2	-103.160499573	0	0.0001
     3	-83.4000549316	0	0.0001
     4	-64.5433120728	0	0.0001
     5	-46.9511833191	0	0.0001
     6	-31.0839557648	0	0.0001
     7	-17.5460243225	0	0.0001
     8	-8.65958213806	0	0.0001
     9	-3.64540243149	0	0.0001
    10	-2.98907995224	0	0.0001
    11	-2.22886538506	0	0.0001
    12	-1.88643312454	0	0.0001
    13	-1.77156662941	0	0.0001
    14	-1.86114084721	0	0.0001
    15	-1.84346985817	0	0.0001
    16	-1.47169923782	0	0.0001
    17	-0.857755064964	0	0.0001
    18	-0.982367277145	0	0.0001
    19	-1.26452207565	0	0.0001
    20	-1.57110762596	0	0.0001
    21	-1.84546339512	0	0.0001

Measurement: iout_pp2
  step	Iout_max2 - Iout_min2
     1	122.897765279
     2	103.327403978
     3	84.145596087
     4	65.6502218246
     5	48.2174293995
     6	32.3432731628
     7	18.6518657207
     8	9.54100883007
     9	4.29692566395
    10	7.89671707153
    11	9.424523592
    12	10.122238636
    13	10.4566862583
    14	11.1856104136
    15	12.3412964344
    16	13.2470297813
    17	13.8922542334
    18	15.1917722225
    19	16.5588793755
    20	17.866451025
    21	18.7962385416

Measurement: pout_mean2
  step	Vout_mean2 * Iout_mean2
     1	-3568.18263305
     2	-2929.5873152
     3	-2328.16220514
     4	-1772.62785798
     5	-1272.45803203
     6	-837.876352009
     7	-481.205540566
     8	-213.363165248
     9	-36.5298344805
    10	62.5620800262
    11	109.289685623
    12	126.46568129
    13	129.270348122
    14	129.204373619
    15	138.51096346
    16	153.153825884
    17	166.376379551
    18	175.215990245
    19	179.696210286
    20	179.904972216
    21	174.69226515

Measurement: loss2
  step	100*(Pin_mean2 - Pout_mean2)/Pin_mean2
     1	-7.44909133716
     2	-6.43599456406
     3	-5.42479632639
     4	-4.42118151178
     5	-3.43990087711
     6	-2.50885215969
     7	-1.67391869211
     8	-1.03534275121
     9	-1.57974595262
    10	1.0203257092
    11	0.984192696501
    12	1.10013243708
    13	1.23434585828
    14	1.13014248429
    15	0.16969088374
    16	-0.765511273494
    17	-0.786645531326
    18	0.203079907899
    19	1.86871281489
    20	3.90019990253
    21	5.89653743352
