LTspice 26.0.1 for Windows
Circuit: C:\Users\afons\OneDrive - Universidade de Lisboa\UNI\Tese\LTSpice sims\EPC23102_Behavioral_Model_LTSPICE\EPC23102_Behavioral_Model_LTSPICE\combined.net
Start Time: Fri Apr 10 15:45:15 2026

.step vbat=30
solver = Normal
Maximum thread count: 12
tnom = 27
temp = 25
method = trap
Per .tran options, skipping operating point for transient analysis.

.step vbat=30.5

.step vbat=31

.step vbat=31.5

.step vbat=32

.step vbat=32.5

.step vbat=33

.step vbat=33.5

.step vbat=34

.step vbat=34.5

.step vbat=35

.step vbat=35.5

.step vbat=36

.step vbat=36.5

.step vbat=37

.step vbat=37.5

.step vbat=38

.step vbat=38.5

.step vbat=39

.step vbat=39.5

.step vbat=40

.step vbat=40.5

.step vbat=41

.step vbat=41.5

.step vbat=42

.step vbat=42.5

.step vbat=43

.step vbat=43.5

.step vbat=44

.step vbat=44.5

.step vbat=45

.step vbat=45.5

.step vbat=46

.step vbat=46.5

.step vbat=47

.step vbat=47.5

.step vbat=48

.step vbat=48.5

.step vbat=49

.step vbat=49.5

.step vbat=50
Total elapsed time: 1813.135 seconds.

Files loaded:
C:\Users\afons\OneDrive - Universidade de Lisboa\UNI\Tese\LTSpice sims\EPC23102_Behavioral_Model_LTSPICE\EPC23102_Behavioral_Model_LTSPICE\combined.net
C:\Users\afons\OneDrive - Universidade de Lisboa\UNI\Tese\LTSpice sims\EPC23102_Behavioral_Model_LTSPICE\EPC23102_Behavioral_Model_LTSPICE\EPC23102_model.net
C:\Users\afons\OneDrive\Documentos\LTspice\LTSpice_WCAP-ATUL (rev25b)\WCAP-ATUL.lib
C:\Users\afons\OneDrive\Documentos\LTspice\LTSpice_WE-HCF (rev22a)\WE-HCF.lib
C:\Users\afons\OneDrive\Documentos\LTspice\Solar Panel\SolarPanels.lib
C:\Users\afons\OneDrive\Documentos\LTspice\WCAP-HTG5\WCAP-HTG5.lib
C:\Users\afons\AppData\Local\LTspice\lib\cmp\standard.dio


Measurement: vout_mean
  step	AVG(V(Vout))	FROM	TO
     1	30.0258392349	0	0.0001
     2	30.5254149182	0	0.0001
     3	31.0250049875	0	0.0001
     4	31.5246095836	0	0.0001
     5	32.0242232039	0	0.0001
     6	32.5238499002	0	0.0001
     7	33.0234899486	0	0.0001
     8	33.5231393498	0	0.0001
     9	34.0227984459	0	0.0001
    10	34.5224706329	0	0.0001
    11	35.0221480837	0	0.0001
    12	35.5218357455	0	0.0001
    13	36.0215336155	0	0.0001
    14	36.5212368536	0	0.0001
    15	37.0209481303	0	0.0001
    16	37.5206707222	0	0.0001
    17	38.0203985024	0	0.0001
    18	38.5201348152	0	0.0001
    19	39.0198752393	0	0.0001
    20	39.5196222708	0	0.0001
    21	40.0193788919	0	0.0001
    22	40.519139837	0	0.0001
    23	41.018904965	0	0.0001
    24	41.5186769154	0	0.0001
    25	42.0184533974	0	0.0001
    26	42.5182377146	0	0.0001
    27	43.018022871	0	0.0001
    28	43.5178145459	0	0.0001
    29	44.0176121317	0	0.0001
    30	44.5174172462	0	0.0001
    31	45.0172246349	0	0.0001
    32	45.5170317207	0	0.0001
    33	46.016845852	0	0.0001
    34	46.5166650473	0	0.0001
    35	47.0164899663	0	0.0001
    36	47.5163131784	0	0.0001
    37	48.0161438423	0	0.0001
    38	48.5159753312	0	0.0001
    39	49.0158120759	0	0.0001
    40	49.5156517186	0	0.0001
    41	50.0154944346	0	0.0001

Measurement: vout_max
  step	MAX(V(Vout))	FROM	TO
     1	30.0354404449	0	0.0001
     2	30.535446167	0	0.0001
     3	31.0354537964	0	0.0001
     4	31.5354652405	0	0.0001
     5	32.0354690552	0	0.0001
     6	32.5354766846	0	0.0001
     7	33.0354881287	0	0.0001
     8	33.5354995728	0	0.0001
     9	34.0355033875	0	0.0001
    10	34.5355186462	0	0.0001
    11	35.0355224609	0	0.0001
    12	35.535533905	0	0.0001
    13	36.0355415344	0	0.0001
    14	36.5355491638	0	0.0001
    15	37.0355529785	0	0.0001
    16	37.5355644226	0	0.0001
    17	38.0355758667	0	0.0001
    18	38.5355834961	0	0.0001
    19	39.0355911255	0	0.0001
    20	39.5355949402	0	0.0001
    21	40.0356063843	0	0.0001
    22	40.5356178284	0	0.0001
    23	41.0356216431	0	0.0001
    24	41.5356292725	0	0.0001
    25	42.0356330872	0	0.0001
    26	42.5356445312	0	0.0001
    27	43.0356483459	0	0.0001
    28	43.5356559753	0	0.0001
    29	44.0356636047	0	0.0001
    30	44.5356750488	0	0.0001
    31	45.0356864929	0	0.0001
    32	45.5356826782	0	0.0001
    33	46.0356903076	0	0.0001
    34	46.535697937	0	0.0001
    35	47.0357131958	0	0.0001
    36	47.5357131958	0	0.0001
    37	48.0357170105	0	0.0001
    38	48.5357246399	0	0.0001
    39	49.0357284546	0	0.0001
    40	49.5357322693	0	0.0001
    41	50.0357398987	0	0.0001

Measurement: vout_min
  step	MIN(V(Vout))	FROM	TO
     1	30.0029602051	0	0.0001
     2	30.5026073456	0	0.0001
     3	31.0022926331	0	0.0001
     4	31.5019569397	0	0.0001
     5	32.0015525818	0	0.0001
     6	32.5012817383	0	0.0001
     7	33.0009880066	0	0.0001
     8	33.5006484985	0	0.0001
     9	34.0003356934	0	0.0001
    10	34.5000686646	0	0.0001
    11	34.9997253418	0	0.0001
    12	35.4994659424	0	0.0001
    13	35.999168396	0	0.0001
    14	36.4988975525	0	0.0001
    15	36.9985847473	0	0.0001
    16	37.498336792	0	0.0001
    17	37.9980621338	0	0.0001
    18	38.4977760315	0	0.0001
    19	38.9974975586	0	0.0001
    20	39.4972267151	0	0.0001
    21	39.9969825745	0	0.0001
    22	40.4966926575	0	0.0001
    23	40.9964447021	0	0.0001
    24	41.4962120056	0	0.0001
    25	41.9959564209	0	0.0001
    26	42.4956932068	0	0.0001
    27	42.9954452515	0	0.0001
    28	43.4952049255	0	0.0001
    29	43.9949569702	0	0.0001
    30	44.4947013855	0	0.0001
    31	44.994468689	0	0.0001
    32	45.4942245483	0	0.0001
    33	45.9939727783	0	0.0001
    34	46.4937362671	0	0.0001
    35	46.993522644	0	0.0001
    36	47.4932975769	0	0.0001
    37	47.9930381775	0	0.0001
    38	48.4928436279	0	0.0001
    39	48.9925880432	0	0.0001
    40	49.4923744202	0	0.0001
    41	49.9921760559	0	0.0001

Measurement: vout_pp
  step	Vout_max - Vout_min
     1	0.0324802398682
     2	0.0328388214111
     3	0.0331611633301
     4	0.0335083007812
     5	0.0339164733887
     6	0.0341949462891
     7	0.0345001220703
     8	0.0348510742188
     9	0.0351676940918
    10	0.0354499816895
    11	0.0357971191406
    12	0.0360679626465
    13	0.0363731384277
    14	0.0366516113281
    15	0.0369682312012
    16	0.0372276306152
    17	0.0375137329102
    18	0.0378074645996
    19	0.0380935668945
    20	0.0383682250977
    21	0.0386238098145
    22	0.0389251708984
    23	0.039176940918
    24	0.0394172668457
    25	0.0396766662598
    26	0.0399513244629
    27	0.0402030944824
    28	0.0404510498047
    29	0.0407066345215
    30	0.0409736633301
    31	0.0412178039551
    32	0.0414581298828
    33	0.0417175292969
    34	0.0419616699219
    35	0.0421905517578
    36	0.0424156188965
    37	0.0426788330078
    38	0.0428810119629
    39	0.043140411377
    40	0.0433578491211
    41	0.0435638427734

Measurement: vin_mean
  step	AVG(V(VDC))	FROM	TO
     1	21.9851022177	0	0.0001
     2	21.9851874101	0	0.0001
     3	21.985552388	0	0.0001
     4	21.9854610685	0	0.0001
     5	21.9854383769	0	0.0001
     6	21.9856505608	0	0.0001
     7	21.9852653337	0	0.0001
     8	21.9851034166	0	0.0001
     9	21.9858281015	0	0.0001
    10	21.984036341	0	0.0001
    11	21.9847442278	0	0.0001
    12	21.9849048249	0	0.0001
    13	21.9855900071	0	0.0001
    14	21.9853573594	0	0.0001
    15	21.9856326688	0	0.0001
    16	21.9861826749	0	0.0001
    17	21.9841843999	0	0.0001
    18	21.9846919274	0	0.0001
    19	21.984599855	0	0.0001
    20	21.9855574593	0	0.0001
    21	21.9849460299	0	0.0001
    22	21.9851813362	0	0.0001
    23	21.9853617727	0	0.0001
    24	21.9852876896	0	0.0001
    25	21.9851325567	0	0.0001
    26	21.9857548873	0	0.0001
    27	21.9861415925	0	0.0001
    28	21.9865926507	0	0.0001
    29	21.9870719317	0	0.0001
    30	21.9858340354	0	0.0001
    31	21.9854937819	0	0.0001
    32	21.9875803031	0	0.0001
    33	21.9871677853	0	0.0001
    34	21.9871945218	0	0.0001
    35	21.9873533694	0	0.0001
    36	21.9868375073	0	0.0001
    37	21.9873079837	0	0.0001
    38	21.9879893311	0	0.0001
    39	21.9882584358	0	0.0001
    40	21.988934987	0	0.0001
    41	21.9888674852	0	0.0001

Measurement: vin_max
  step	MAX(V(VDC))	FROM	TO
     1	22.0042381287	0	0.0001
     2	22.0052471161	0	0.0001
     3	22.0065002441	0	0.0001
     4	22.00689888	0	0.0001
     5	22.0072135925	0	0.0001
     6	22.0075531006	0	0.0001
     7	22.0069217682	0	0.0001
     8	22.0070991516	0	0.0001
     9	22.0088253021	0	0.0001
    10	22.0072307587	0	0.0001
    11	22.0081958771	0	0.0001
    12	22.0090827942	0	0.0001
    13	22.0098743439	0	0.0001
    14	22.0101699829	0	0.0001
    15	22.0108985901	0	0.0001
    16	22.0116710663	0	0.0001
    17	22.0097198486	0	0.0001
    18	22.0110054016	0	0.0001
    19	22.010843277	0	0.0001
    20	22.0119533539	0	0.0001
    21	22.0121059418	0	0.0001
    22	22.0123806	0	0.0001
    23	22.0124073029	0	0.0001
    24	22.0130615234	0	0.0001
    25	22.0125102997	0	0.0001
    26	22.0136508942	0	0.0001
    27	22.0144805908	0	0.0001
    28	22.0143737793	0	0.0001
    29	22.0154495239	0	0.0001
    30	22.0141563416	0	0.0001
    31	22.0139465332	0	0.0001
    32	22.0160923004	0	0.0001
    33	22.0160560608	0	0.0001
    34	22.0161018372	0	0.0001
    35	22.0167980194	0	0.0001
    36	22.0160255432	0	0.0001
    37	22.0170936584	0	0.0001
    38	22.0181064606	0	0.0001
    39	22.0180530548	0	0.0001
    40	22.0188941956	0	0.0001
    41	22.0190372467	0	0.0001

Measurement: vin_min
  step	MIN(V(VDC))	FROM	TO
     1	21.9659500122	0	0.0001
     2	21.9651603699	0	0.0001
     3	21.9644813538	0	0.0001
     4	21.9636306763	0	0.0001
     5	21.9632263184	0	0.0001
     6	21.9630908966	0	0.0001
     7	21.9634838104	0	0.0001
     8	21.9629001617	0	0.0001
     9	21.9619941711	0	0.0001
    10	21.9602336884	0	0.0001
    11	21.9606704712	0	0.0001
    12	21.9597606659	0	0.0001
    13	21.9601249695	0	0.0001
    14	21.95911026	0	0.0001
    15	21.9586467743	0	0.0001
    16	21.9586639404	0	0.0001
    17	21.9571151733	0	0.0001
    18	21.9562931061	0	0.0001
    19	21.9563369751	0	0.0001
    20	21.9568309784	0	0.0001
    21	21.9553108215	0	0.0001
    22	21.9552249908	0	0.0001
    23	21.955537796	0	0.0001
    24	21.9542293549	0	0.0001
    25	21.9552326202	0	0.0001
    26	21.9546699524	0	0.0001
    27	21.9542064667	0	0.0001
    28	21.9555702209	0	0.0001
    29	21.9545631409	0	0.0001
    30	21.9535369873	0	0.0001
    31	21.9529399872	0	0.0001
    32	21.9549827576	0	0.0001
    33	21.9539394379	0	0.0001
    34	21.9538002014	0	0.0001
    35	21.9528713226	0	0.0001
    36	21.9529361725	0	0.0001
    37	21.9522094727	0	0.0001
    38	21.9519443512	0	0.0001
    39	21.9527664185	0	0.0001
    40	21.9529380798	0	0.0001
    41	21.9525299072	0	0.0001

Measurement: vin_pp
  step	Vin_max - Vin_min
     1	0.0382881164551
     2	0.0400867462158
     3	0.0420188903809
     4	0.0432682037354
     5	0.0439872741699
     6	0.0444622039795
     7	0.0434379577637
     8	0.0441989898682
     9	0.0468311309814
    10	0.0469970703125
    11	0.0475254058838
    12	0.0493221282959
    13	0.0497493743896
    14	0.0510597229004
    15	0.0522518157959
    16	0.0530071258545
    17	0.052604675293
    18	0.0547122955322
    19	0.0545063018799
    20	0.0551223754883
    21	0.0567951202393
    22	0.0571556091309
    23	0.0568695068359
    24	0.0588321685791
    25	0.0572776794434
    26	0.0589809417725
    27	0.0602741241455
    28	0.0588035583496
    29	0.0608863830566
    30	0.060619354248
    31	0.0610065460205
    32	0.0611095428467
    33	0.0621166229248
    34	0.0623016357422
    35	0.0639266967773
    36	0.0630893707275
    37	0.064884185791
    38	0.066162109375
    39	0.0652866363525
    40	0.0659561157227
    41	0.0665073394775

Measurement: iin_mean
  step	AVG(I(L1))	FROM	TO
     1	5.90238385578	0	0.0001
     2	5.90215621878	0	0.0001
     3	5.90205646785	0	0.0001
     4	5.90257902636	0	0.0001
     5	5.9023341246	0	0.0001
     6	5.90223024156	0	0.0001
     7	5.90278140182	0	0.0001
     8	5.90283489839	0	0.0001
     9	5.90257410891	0	0.0001
    10	5.90360357962	0	0.0001
    11	5.90328021801	0	0.0001
    12	5.90317165845	0	0.0001
    13	5.90362712218	0	0.0001
    14	5.9031948461	0	0.0001
    15	5.9027725259	0	0.0001
    16	5.90346995394	0	0.0001
    17	5.90361969703	0	0.0001
    18	5.90410263064	0	0.0001
    19	5.90360702054	0	0.0001
    20	5.90345967578	0	0.0001
    21	5.90404827157	0	0.0001
    22	5.90422618962	0	0.0001
    23	5.90398192321	0	0.0001
    24	5.90395500554	0	0.0001
    25	5.90350294676	0	0.0001
    26	5.90423035822	0	0.0001
    27	5.90345011237	0	0.0001
    28	5.90332192087	0	0.0001
    29	5.90337992811	0	0.0001
    30	5.90468482096	0	0.0001
    31	5.90502953945	0	0.0001
    32	5.90367784792	0	0.0001
    33	5.90368982998	0	0.0001
    34	5.90407783855	0	0.0001
    35	5.90486422276	0	0.0001
    36	5.90370054778	0	0.0001
    37	5.90399303578	0	0.0001
    38	5.90349986447	0	0.0001
    39	5.90371588946	0	0.0001
    40	5.90359010834	0	0.0001
    41	5.90336703917	0	0.0001

Measurement: iin_max
  step	MAX(I(L1))	FROM	TO
     1	6.33798408508	0	0.0001
     2	6.35699748993	0	0.0001
     3	6.3757686615	0	0.0001
     4	6.39428901672	0	0.0001
     5	6.41143465042	0	0.0001
     6	6.42840766907	0	0.0001
     7	6.44524240494	0	0.0001
     8	6.46144485474	0	0.0001
     9	6.47655725479	0	0.0001
    10	6.49267530441	0	0.0001
    11	6.50689077377	0	0.0001
    12	6.52100610733	0	0.0001
    13	6.53534173965	0	0.0001
    14	6.54811906815	0	0.0001
    15	6.56085777283	0	0.0001
    16	6.57421064377	0	0.0001
    17	6.58683252335	0	0.0001
    18	6.59929656982	0	0.0001
    19	6.61050653458	0	0.0001
    20	6.62168979645	0	0.0001
    21	6.63357925415	0	0.0001
    22	6.64491081238	0	0.0001
    23	6.65493154526	0	0.0001
    24	6.66556930542	0	0.0001
    25	6.6750664711	0	0.0001
    26	6.68550157547	0	0.0001
    27	6.69435977936	0	0.0001
    28	6.70369815826	0	0.0001
    29	6.71290683746	0	0.0001
    30	6.72340011597	0	0.0001
    31	6.73271465302	0	0.0001
    32	6.73970270157	0	0.0001
    33	6.74802446365	0	0.0001
    34	6.756731987	0	0.0001
    35	6.7659034729	0	0.0001
    36	6.77253866196	0	0.0001
    37	6.78042650223	0	0.0001
    38	6.7876958847	0	0.0001
    39	6.79503774643	0	0.0001
    40	6.80206727982	0	0.0001
    41	6.80899524689	0	0.0001

Measurement: iin_min
  step	MIN(I(L1))	FROM	TO
     1	5.4662861824	0	0.0001
     2	5.44679689407	0	0.0001
     3	5.42756319046	0	0.0001
     4	5.41004753113	0	0.0001
     5	5.3926448822	0	0.0001
     6	5.37535238266	0	0.0001
     7	5.35981178284	0	0.0001
     8	5.34370708466	0	0.0001
     9	5.32778310776	0	0.0001
    10	5.31367921829	0	0.0001
    11	5.29887723923	0	0.0001
    12	5.28436851501	0	0.0001
    13	5.27123403549	0	0.0001
    14	5.25748443604	0	0.0001
    15	5.2438120842	0	0.0001
    16	5.23164892197	0	0.0001
    17	5.21972322464	0	0.0001
    18	5.20792102814	0	0.0001
    19	5.1958322525	0	0.0001
    20	5.18454170227	0	0.0001
    21	5.17383956909	0	0.0001
    22	5.16231966019	0	0.0001
    23	5.15242004395	0	0.0001
    24	5.1408405304	0	0.0001
    25	5.13076734543	0	0.0001
    26	5.12194919586	0	0.0001
    27	5.11153173447	0	0.0001
    28	5.10190534592	0	0.0001
    29	5.09250116348	0	0.0001
    30	5.08482837677	0	0.0001
    31	5.0755853653	0	0.0001
    32	5.06618690491	0	0.0001
    33	5.05838871002	0	0.0001
    34	5.05024003983	0	0.0001
    35	5.04218530655	0	0.0001
    36	5.03298473358	0	0.0001
    37	5.02559614182	0	0.0001
    38	5.01742172241	0	0.0001
    39	5.01099538803	0	0.0001
    40	5.00373458862	0	0.0001
    41	4.99654769897	0	0.0001

Measurement: iin_pp
  step	Iin_max - Iin_min
     1	0.871697902679
     2	0.910200595856
     3	0.948205471039
     4	0.984241485596
     5	1.01878976822
     6	1.05305528641
     7	1.0854306221
     8	1.11773777008
     9	1.14877414703
    10	1.17899608612
    11	1.20801353455
    12	1.23663759232
    13	1.26410770416
    14	1.29063463211
    15	1.31704568863
    16	1.3425617218
    17	1.36710929871
    18	1.39137554169
    19	1.41467428207
    20	1.43714809418
    21	1.45973968506
    22	1.48259115219
    23	1.50251150131
    24	1.52472877502
    25	1.54429912567
    26	1.56355237961
    27	1.58282804489
    28	1.60179281235
    29	1.62040567398
    30	1.6385717392
    31	1.65712928772
    32	1.67351579666
    33	1.68963575363
    34	1.70649194717
    35	1.72371816635
    36	1.73955392838
    37	1.75483036041
    38	1.77027416229
    39	1.7840423584
    40	1.79833269119
    41	1.81244754791

Measurement: pin_mean
  step	Vin_mean * Iin_mean
     1	129.764512397
     2	129.760010594
     3	129.759971671
     4	129.770921388
     5	129.765403176
     6	129.76437162
     7	129.774215326
     8	129.774435692
     9	129.772979715
    10	129.785035637
    11	129.782105698
    12	129.780667076
    13	129.794725463
    14	129.783848254
    15	129.776188482
    16	129.794768823
    17	129.786264047
    18	129.799877442
    19	129.788438047
    20	129.79085191
    21	129.800182608
    22	129.805483429
    23	129.801178481
    24	129.800149303
    25	129.789294834
    26	129.808961454
    27	129.794090055
    28	129.79393436
    29	129.79803912
    30	129.819420505
    31	129.824990222
    32	129.807590765
    33	129.805418844
    34	129.814107908
    35	129.832336264
    36	129.803704636
    37	129.812913211
    38	129.806092036
    39	129.812430709
    40	129.813659082
    41	129.808355541

Measurement: iout_mean
  step	AVG(I(V1))	FROM	TO
     1	4.30653819656	0	0.0001
     2	4.23582012981	0	0.0001
     3	4.16749936348	0	0.0001
     4	4.10159411862	0	0.0001
     5	4.03720164634	0	0.0001
     6	3.97498498336	0	0.0001
     7	3.91499254763	0	0.0001
     8	3.85656252427	0	0.0001
     9	3.79973694444	0	0.0001
    10	3.74510386312	0	0.0001
    11	3.69134829015	0	0.0001
    12	3.63929263544	0	0.0001
    13	3.58893600919	0	0.0001
    14	3.53947505163	0	0.0001
    15	3.491354108	0	0.0001
    16	3.44511885329	0	0.0001
    17	3.39975034464	0	0.0001
    18	3.35580112708	0	0.0001
    19	3.31253656974	0	0.0001
    20	3.27037732303	0	0.0001
    21	3.22981599498	0	0.0001
    22	3.18997268024	0	0.0001
    23	3.15082671327	0	0.0001
    24	3.11281883071	0	0.0001
    25	3.07556447431	0	0.0001
    26	3.0396181164	0	0.0001
    27	3.00381150132	0	0.0001
    28	2.96908998782	0	0.0001
    29	2.93535566073	0	0.0001
    30	2.90287033962	0	0.0001
    31	2.87077374615	0	0.0001
    32	2.8386193447	0	0.0001
    33	2.80764245773	0	0.0001
    34	2.77750702568	0	0.0001
    35	2.74832812607	0	0.0001
    36	2.7188627548	0	0.0001
    37	2.69064285745	0	0.0001
    38	2.66255724032	0	0.0001
    39	2.63534645944	0	0.0001
    40	2.60862015878	0	0.0001
    41	2.58240403576	0	0.0001

Measurement: iout_max
  step	MAX(I(V1))	FROM	TO
     1	5.90675020218	0	0.0001
     2	5.90773487091	0	0.0001
     3	5.9091091156	0	0.0001
     4	5.9108247757	0	0.0001
     5	5.91173028946	0	0.0001
     6	5.91308736801	0	0.0001
     7	5.91478347778	0	0.0001
     8	5.91632795334	0	0.0001
     9	5.91742134094	0	0.0001
    10	5.91970157623	0	0.0001
    11	5.92069196701	0	0.0001
    12	5.92201042175	0	0.0001
    13	5.9238038063	0	0.0001
    14	5.92461156845	0	0.0001
    15	5.9256477356	0	0.0001
    16	5.92759227753	0	0.0001
    17	5.9291100502	0	0.0001
    18	5.93078613281	0	0.0001
    19	5.93163633347	0	0.0001
    20	5.93270397186	0	0.0001
    21	5.93463039398	0	0.0001
    22	5.9362745285	0	0.0001
    23	5.93703699112	0	0.0001
    24	5.93848419189	0	0.0001
    25	5.93915748596	0	0.0001
    26	5.94088554382	0	0.0001
    27	5.94137859344	0	0.0001
    28	5.94247484207	0	0.0001
    29	5.94367361069	0	0.0001
    30	5.94610357285	0	0.0001
    31	5.94771242142	0	0.0001
    32	5.94742536545	0	0.0001
    33	5.94843435287	0	0.0001
    34	5.9499168396	0	0.0001
    35	5.95196056366	0	0.0001
    36	5.95189380646	0	0.0001
    37	5.95312833786	0	0.0001
    38	5.95386600494	0	0.0001
    39	5.95482778549	0	0.0001
    40	5.95561981201	0	0.0001
    41	5.95640468597	0	0.0001

Measurement: iout_min
  step	MIN(I(V1))	FROM	TO
     1	0.493521332741	0	0.0001
     2	0.434637129307	0	0.0001
     3	0.38208463788	0	0.0001
     4	0.32618317008	0	0.0001
     5	0.259073853493	0	0.0001
     6	0.213882878423	0	0.0001
     7	0.164419814944	0	0.0001
     8	0.108018249273	0	0.0001
     9	0.0562500990927	0	0.0001
    10	0.0114224981517	0	0.0001
    11	-0.0455613173544	0	0.0001
    12	-0.0889442935586	0	0.0001
    13	-0.138315752149	0	0.0001
    14	-0.183775141835	0	0.0001
    15	-0.235603049397	0	0.0001
    16	-0.277085572481	0	0.0001
    17	-0.322808921337	0	0.0001
    18	-0.370374977589	0	0.0001
    19	-0.416987985373	0	0.0001
    20	-0.462113916874	0	0.0001
    21	-0.503118157387	0	0.0001
    22	-0.551027297974	0	0.0001
    23	-0.592604696751	0	0.0001
    24	-0.631116867065	0	0.0001
    25	-0.674159526825	0	0.0001
    26	-0.71757042408	0	0.0001
    27	-0.75915312767	0	0.0001
    28	-0.79920232296	0	0.0001
    29	-0.840781629086	0	0.0001
    30	-0.883379399776	0	0.0001
    31	-0.921593368053	0	0.0001
    32	-0.962729036808	0	0.0001
    33	-1.00476884842	0	0.0001
    34	-1.04373311996	0	0.0001
    35	-1.07935631275	0	0.0001
    36	-1.11713111401	0	0.0001
    37	-1.16054439545	0	0.0001
    38	-1.19249749184	0	0.0001
    39	-1.23540115356	0	0.0001
    40	-1.27068388462	0	0.0001
    41	-1.30371427536	0	0.0001

Measurement: iout_pp
  step	Iout_max - Iout_min
     1	5.41322886944
     2	5.4730977416
     3	5.52702447772
     4	5.58464160562
     5	5.65265643597
     6	5.69920448959
     7	5.75036366284
     8	5.80830970407
     9	5.86117124185
    10	5.90827907808
    11	5.96625328436
    12	6.01095471531
    13	6.06211955845
    14	6.10838671029
    15	6.16125078499
    16	6.20467785001
    17	6.25191897154
    18	6.3011611104
    19	6.34862431884
    20	6.39481788874
    21	6.43774855137
    22	6.48730182648
    23	6.52964168787
    24	6.56960105896
    25	6.61331701279
    26	6.6584559679
    27	6.70053172112
    28	6.74167716503
    29	6.78445523977
    30	6.82948297262
    31	6.86930578947
    32	6.91015440226
    33	6.95320320129
    34	6.99364995956
    35	7.03131687641
    36	7.06902492046
    37	7.11367273331
    38	7.14636349678
    39	7.19022893906
    40	7.22630369663
    41	7.26011896133

Measurement: pout_mean
  step	Vout_mean * Iout_mean
     1	129.307423549
     2	129.300166981
     3	129.296688537
     4	129.30115326
     5	129.288246642
     6	129.281814954
     7	129.286717045
     8	129.284082912
     9	129.277684208
    10	129.290238132
    11	129.278946446
    12	129.274355226
    13	129.278979099
    14	129.266006698
    15	129.253239337
    16	129.263170093
    17	129.259862912
    18	129.265911828
    19	129.254763677
    20	129.244076489
    21	129.255230054
    22	129.254949107
    23	129.243461513
    24	129.240119328
    25	129.230462534
    26	129.239205634
    27	129.218031864
    28	129.20830746
    29	129.207346943
    30	129.22829012
    31	129.234266607
    32	129.205526756
    33	129.198850185
    34	129.20036398
    35	129.216741764
    36	129.190334146
    37	129.194294471
    38	129.176561389
    39	129.173646811
    40	129.167527248
    41	129.160214679

Measurement: loss
  step	100*(Pin_mean - Pout_mean)/Pin_mean
     1	0.352244877913
     2	0.354380067064
     3	0.357030852641
     4	0.361997990568
     5	0.367707048981
     6	0.371871461928
     7	0.375651110134
     8	0.377850057492
     9	0.381663045732
    10	0.381243879737
    11	0.387695398236
    12	0.390128870068
    13	0.397355410558
    14	0.399003082893
    15	0.402962324113
    16	0.409568686555
    17	0.405590790847
    18	0.411376053995
    19	0.411187913499
    20	0.42127423706
    21	0.41983959001
    22	0.424122546726
    23	0.429670188749
    24	0.431455570647
    25	0.43056886919
    26	0.438918710646
    27	0.443824669491
    28	0.451197433018
    29	0.455085593565
    30	0.455348192101
    31	0.455015335724
    32	0.46381263659
    33	0.467290707119
    34	0.472786770108
    35	0.474145746892
    36	0.472536967374
    37	0.476546381033
    38	0.484977736205
    39	0.492082225538
    40	0.497737940727
    41	0.499305965146

Measurement: vout_mean2
  step	AVG(V(Vout2))	FROM	TO
     1	30.0259062584	0	0.0001
     2	30.5254772781	0	0.0001
     3	31.0250607609	0	0.0001
     4	31.5246603933	0	0.0001
     5	32.0242751407	0	0.0001
     6	32.5239025057	0	0.0001
     7	33.0235500882	0	0.0001
     8	33.5231985514	0	0.0001
     9	34.0228468868	0	0.0001
    10	34.5225179869	0	0.0001
    11	35.0221971024	0	0.0001
    12	35.5218783205	0	0.0001
    13	36.0215748741	0	0.0001
    14	36.5212758434	0	0.0001
    15	37.02098484	0	0.0001
    16	37.5207033609	0	0.0001
    17	38.0204356586	0	0.0001
    18	38.5201622517	0	0.0001
    19	39.01990644	0	0.0001
    20	39.5196536582	0	0.0001
    21	40.0194026716	0	0.0001
    22	40.5191622458	0	0.0001
    23	41.0189315171	0	0.0001
    24	41.5186961165	0	0.0001
    25	42.0184815103	0	0.0001
    26	42.5182579061	0	0.0001
    27	43.0180415229	0	0.0001
    28	43.517841644	0	0.0001
    29	44.0176309054	0	0.0001
    30	44.517434684	0	0.0001
    31	45.0172398438	0	0.0001
    32	45.5170519276	0	0.0001
    33	46.0168634875	0	0.0001
    34	46.5166818874	0	0.0001
    35	47.0164983603	0	0.0001
    36	47.5163286285	0	0.0001
    37	48.0161524014	0	0.0001
    38	48.5159814899	0	0.0001
    39	49.0158224175	0	0.0001
    40	49.5156607812	0	0.0001
    41	50.0155021735	0	0.0001

Measurement: vout_max2
  step	MAX(V(Vout2))	FROM	TO
     1	30.0485057831	0	0.0001
     2	30.5486431122	0	0.0001
     3	31.0487785339	0	0.0001
     4	31.5489273071	0	0.0001
     5	32.0490684509	0	0.0001
     6	32.5492095947	0	0.0001
     7	33.0493545532	0	0.0001
     8	33.5494918823	0	0.0001
     9	34.0496101379	0	0.0001
    10	34.5497169495	0	0.0001
    11	35.0498504639	0	0.0001
    12	35.5499649048	0	0.0001
    13	36.0500907898	0	0.0001
    14	36.550201416	0	0.0001
    15	37.0503196716	0	0.0001
    16	37.5504341125	0	0.0001
    17	38.0505218506	0	0.0001
    18	38.5506324768	0	0.0001
    19	39.0507278442	0	0.0001
    20	39.5508575439	0	0.0001
    21	40.0509262085	0	0.0001
    22	40.5510292053	0	0.0001
    23	41.0511283875	0	0.0001
    24	41.5512123108	0	0.0001
    25	42.0513076782	0	0.0001
    26	42.551399231	0	0.0001
    27	43.0514907837	0	0.0001
    28	43.5515785217	0	0.0001
    29	44.0516548157	0	0.0001
    30	44.5517196655	0	0.0001
    31	45.0517997742	0	0.0001
    32	45.5518989563	0	0.0001
    33	46.0519752502	0	0.0001
    34	46.5520477295	0	0.0001
    35	47.052116394	0	0.0001
    36	47.5521812439	0	0.0001
    37	48.0522422791	0	0.0001
    38	48.5523262024	0	0.0001
    39	49.0524024963	0	0.0001
    40	49.552482605	0	0.0001
    41	50.052532196	0	0.0001

Measurement: vout_min2
  step	MIN(V(Vout2))	FROM	TO
     1	29.9991970062	0	0.0001
     2	30.4987030029	0	0.0001
     3	30.9982185364	0	0.0001
     4	31.497756958	0	0.0001
     5	31.9973182678	0	0.0001
     6	32.4968719482	0	0.0001
     7	32.9964561462	0	0.0001
     8	33.4960403442	0	0.0001
     9	33.9956092834	0	0.0001
    10	34.4952201843	0	0.0001
    11	34.9947929382	0	0.0001
    12	35.494392395	0	0.0001
    13	35.9940109253	0	0.0001
    14	36.4936294556	0	0.0001
    15	36.9932594299	0	0.0001
    16	37.492893219	0	0.0001
    17	37.9925422668	0	0.0001
    18	38.4921875	0	0.0001
    19	38.9918479919	0	0.0001
    20	39.4915122986	0	0.0001
    21	39.9911689758	0	0.0001
    22	40.4908485413	0	0.0001
    23	40.9905548096	0	0.0001
    24	41.4902420044	0	0.0001
    25	41.9899520874	0	0.0001
    26	42.4896812439	0	0.0001
    27	42.9894065857	0	0.0001
    28	43.4891471863	0	0.0001
    29	43.9888877869	0	0.0001
    30	44.4886398315	0	0.0001
    31	44.9884300232	0	0.0001
    32	45.4881820679	0	0.0001
    33	45.9879760742	0	0.0001
    34	46.4877357483	0	0.0001
    35	46.9875144958	0	0.0001
    36	47.4873123169	0	0.0001
    37	47.9870948792	0	0.0001
    38	48.4868774414	0	0.0001
    39	48.9866676331	0	0.0001
    40	49.4864501953	0	0.0001
    41	49.9862594604	0	0.0001

Measurement: vout_pp2
  step	Vout_max2 - Vout_min2
     1	0.0493087768555
     2	0.0499401092529
     3	0.0505599975586
     4	0.0511703491211
     5	0.0517501831055
     6	0.0523376464844
     7	0.0528984069824
     8	0.0534515380859
     9	0.0540008544922
    10	0.0544967651367
    11	0.0550575256348
    12	0.0555725097656
    13	0.056079864502
    14	0.0565719604492
    15	0.0570602416992
    16	0.0575408935547
    17	0.0579795837402
    18	0.0584449768066
    19	0.0588798522949
    20	0.0593452453613
    21	0.059757232666
    22	0.0601806640625
    23	0.0605735778809
    24	0.0609703063965
    25	0.0613555908203
    26	0.0617179870605
    27	0.062084197998
    28	0.0624313354492
    29	0.0627670288086
    30	0.0630798339844
    31	0.0633697509766
    32	0.0637168884277
    33	0.0639991760254
    34	0.0643119812012
    35	0.0646018981934
    36	0.064868927002
    37	0.0651473999023
    38	0.0654487609863
    39	0.0657348632812
    40	0.066032409668
    41	0.0662727355957

Measurement: vin_mean2
  step	AVG(V(VDC2))	FROM	TO
     1	22.1056679577	0	0.0001
     2	22.1059856405	0	0.0001
     3	22.1052713849	0	0.0001
     4	22.1048564598	0	0.0001
     5	22.1047812018	0	0.0001
     6	22.104480052	0	0.0001
     7	22.1046594532	0	0.0001
     8	22.1040355585	0	0.0001
     9	22.1040099665	0	0.0001
    10	22.1032539014	0	0.0001
    11	22.1032006265	0	0.0001
    12	22.1032224151	0	0.0001
    13	22.1032482831	0	0.0001
    14	22.1031250179	0	0.0001
    15	22.1026487042	0	0.0001
    16	22.1024486075	0	0.0001
    17	22.1026350568	0	0.0001
    18	22.1020571217	0	0.0001
    19	22.1026986331	0	0.0001
    20	22.1023525933	0	0.0001
    21	22.1025015057	0	0.0001
    22	22.101246327	0	0.0001
    23	22.1026144815	0	0.0001
    24	22.1008335491	0	0.0001
    25	22.1020607975	0	0.0001
    26	22.1021292859	0	0.0001
    27	22.1018272743	0	0.0001
    28	22.1014580284	0	0.0001
    29	22.1005841179	0	0.0001
    30	22.1008882091	0	0.0001
    31	22.1001479605	0	0.0001
    32	22.1012608831	0	0.0001
    33	22.101533276	0	0.0001
    34	22.1011090357	0	0.0001
    35	22.1000973141	0	0.0001
    36	22.1004205285	0	0.0001
    37	22.1006550559	0	0.0001
    38	22.0996505148	0	0.0001
    39	22.1007486109	0	0.0001
    40	22.1008292992	0	0.0001
    41	22.1010349831	0	0.0001

Measurement: vin_max2
  step	MAX(V(VDC2))	FROM	TO
     1	22.1171226501	0	0.0001
     2	22.1175899506	0	0.0001
     3	22.116979599	0	0.0001
     4	22.1168899536	0	0.0001
     5	22.1168403625	0	0.0001
     6	22.1166400909	0	0.0001
     7	22.1171836853	0	0.0001
     8	22.1166648865	0	0.0001
     9	22.1166934967	0	0.0001
    10	22.1163845062	0	0.0001
    11	22.116312027	0	0.0001
    12	22.1164283752	0	0.0001
    13	22.1167449951	0	0.0001
    14	22.1165275574	0	0.0001
    15	22.1159553528	0	0.0001
    16	22.116109848	0	0.0001
    17	22.1164512634	0	0.0001
    18	22.1161003113	0	0.0001
    19	22.1167144775	0	0.0001
    20	22.1163368225	0	0.0001
    21	22.1168308258	0	0.0001
    22	22.1156387329	0	0.0001
    23	22.117067337	0	0.0001
    24	22.1152191162	0	0.0001
    25	22.1164875031	0	0.0001
    26	22.1168823242	0	0.0001
    27	22.1162872314	0	0.0001
    28	22.1158924103	0	0.0001
    29	22.1150016785	0	0.0001
    30	22.1159248352	0	0.0001
    31	22.11536026	0	0.0001
    32	22.1160869598	0	0.0001
    33	22.1164112091	0	0.0001
    34	22.116147995	0	0.0001
    35	22.1154346466	0	0.0001
    36	22.1153964996	0	0.0001
    37	22.115819931	0	0.0001
    38	22.1145381927	0	0.0001
    39	22.1158485413	0	0.0001
    40	22.1159286499	0	0.0001
    41	22.1161270142	0	0.0001

Measurement: vin_min2
  step	MIN(V(VDC2))	FROM	TO
     1	22.0972232819	0	0.0001
     2	22.0973300934	0	0.0001
     3	22.096616745	0	0.0001
     4	22.095785141	0	0.0001
     5	22.0955314636	0	0.0001
     6	22.0951156616	0	0.0001
     7	22.094751358	0	0.0001
     8	22.0940418243	0	0.0001
     9	22.0939846039	0	0.0001
    10	22.0926971436	0	0.0001
    11	22.0926055908	0	0.0001
    12	22.0925197601	0	0.0001
    13	22.0921573639	0	0.0001
    14	22.091999054	0	0.0001
    15	22.091550827	0	0.0001
    16	22.090877533	0	0.0001
    17	22.0907211304	0	0.0001
    18	22.0898551941	0	0.0001
    19	22.0903816223	0	0.0001
    20	22.0899162292	0	0.0001
    21	22.0896377563	0	0.0001
    22	22.0883312225	0	0.0001
    23	22.0892925262	0	0.0001
    24	22.0876522064	0	0.0001
    25	22.088684082	0	0.0001
    26	22.0882472992	0	0.0001
    27	22.0880680084	0	0.0001
    28	22.0875968933	0	0.0001
    29	22.0866794586	0	0.0001
    30	22.0862503052	0	0.0001
    31	22.0853672028	0	0.0001
    32	22.08659935	0	0.0001
    33	22.0866394043	0	0.0001
    34	22.0859165192	0	0.0001
    35	22.0846672058	0	0.0001
    36	22.0851802826	0	0.0001
    37	22.0851211548	0	0.0001
    38	22.084274292	0	0.0001
    39	22.0849056244	0	0.0001
    40	22.084859848	0	0.0001
    41	22.0849990845	0	0.0001

Measurement: vin_pp2
  step	Vin_max2 - Vin_min2
     1	0.0198993682861
     2	0.0202598571777
     3	0.0203628540039
     4	0.0211048126221
     5	0.0213088989258
     6	0.0215244293213
     7	0.0224323272705
     8	0.0226230621338
     9	0.0227088928223
    10	0.0236873626709
    11	0.0237064361572
    12	0.0239086151123
    13	0.0245876312256
    14	0.024528503418
    15	0.0244045257568
    16	0.0252323150635
    17	0.0257301330566
    18	0.0262451171875
    19	0.0263328552246
    20	0.0264205932617
    21	0.027193069458
    22	0.027307510376
    23	0.027774810791
    24	0.02756690979
    25	0.0278034210205
    26	0.0286350250244
    27	0.0282192230225
    28	0.0282955169678
    29	0.0283222198486
    30	0.0296745300293
    31	0.029993057251
    32	0.0294876098633
    33	0.0297718048096
    34	0.0302314758301
    35	0.0307674407959
    36	0.030216217041
    37	0.0306987762451
    38	0.0302639007568
    39	0.0309429168701
    40	0.0310688018799
    41	0.0311279296875

Measurement: iin_mean2
  step	AVG(Ix(U6:1))	FROM	TO
     1	5.92250738487	0	0.0001
     2	5.92174609787	0	0.0001
     3	5.9206789755	0	0.0001
     4	5.92059942103	0	0.0001
     5	5.92111007632	0	0.0001
     6	5.92188914487	0	0.0001
     7	5.92485037613	0	0.0001
     8	5.9252829117	0	0.0001
     9	5.92284909423	0	0.0001
    10	5.923863452	0	0.0001
    11	5.92455665388	0	0.0001
    12	5.92321171761	0	0.0001
    13	5.92389388892	0	0.0001
    14	5.9233026048	0	0.0001
    15	5.92281492347	0	0.0001
    16	5.92291430717	0	0.0001
    17	5.92433943883	0	0.0001
    18	5.92265652827	0	0.0001
    19	5.9237123292	0	0.0001
    20	5.92430700471	0	0.0001
    21	5.92260858858	0	0.0001
    22	5.92297855873	0	0.0001
    23	5.92435471175	0	0.0001
    24	5.92266849187	0	0.0001
    25	5.92520728417	0	0.0001
    26	5.92383807459	0	0.0001
    27	5.92303410027	0	0.0001
    28	5.92639640101	0	0.0001
    29	5.92417920206	0	0.0001
    30	5.92497470443	0	0.0001
    31	5.92501554303	0	0.0001
    32	5.92586815044	0	0.0001
    33	5.92537796087	0	0.0001
    34	5.92572070413	0	0.0001
    35	5.92391239665	0	0.0001
    36	5.92541777153	0	0.0001
    37	5.92360086105	0	0.0001
    38	5.92270829441	0	0.0001
    39	5.92476110748	0	0.0001
    40	5.92465056645	0	0.0001
    41	5.9241344736	0	0.0001

Measurement: iin_max2
  step	MAX(Ix(U6:1))	FROM	TO
     1	7.26824522018	0	0.0001
     2	7.32714223862	0	0.0001
     3	7.38484668732	0	0.0001
     4	7.44995689392	0	0.0001
     5	7.51177215576	0	0.0001
     6	7.55632257462	0	0.0001
     7	7.62388706207	0	0.0001
     8	7.67196846008	0	0.0001
     9	7.7288403511	0	0.0001
    10	7.80158519745	0	0.0001
    11	7.84275770187	0	0.0001
    12	7.86044168472	0	0.0001
    13	7.9091925621	0	0.0001
    14	7.94726991653	0	0.0001
    15	7.9645447731	0	0.0001
    16	7.96884441376	0	0.0001
    17	8.0091676712	0	0.0001
    18	8.08525180817	0	0.0001
    19	8.13227939606	0	0.0001
    20	8.17777061462	0	0.0001
    21	8.21090602875	0	0.0001
    22	8.2349023819	0	0.0001
    23	8.27510070801	0	0.0001
    24	8.31307125092	0	0.0001
    25	8.3422498703	0	0.0001
    26	8.32222366333	0	0.0001
    27	8.3359041214	0	0.0001
    28	8.37980651855	0	0.0001
    29	8.38279151917	0	0.0001
    30	8.42349815369	0	0.0001
    31	8.42680168152	0	0.0001
    32	8.45282840729	0	0.0001
    33	8.50051116943	0	0.0001
    34	8.53580093384	0	0.0001
    35	8.55195522308	0	0.0001
    36	8.58192920685	0	0.0001
    37	8.60360240936	0	0.0001
    38	8.61951541901	0	0.0001
    39	8.67350006104	0	0.0001
    40	8.65525245667	0	0.0001
    41	8.73033714294	0	0.0001

Measurement: iin_min2
  step	MIN(Ix(U6:1))	FROM	TO
     1	4.60024785995	0	0.0001
     2	4.52689504623	0	0.0001
     3	4.46342611313	0	0.0001
     4	4.40961885452	0	0.0001
     5	4.36767482758	0	0.0001
     6	4.3017783165	0	0.0001
     7	4.25623893738	0	0.0001
     8	4.1818356514	0	0.0001
     9	4.14097833633	0	0.0001
    10	4.07199954987	0	0.0001
    11	4.02236509323	0	0.0001
    12	3.98918914795	0	0.0001
    13	3.95059657097	0	0.0001
    14	3.91318273544	0	0.0001
    15	3.91509246826	0	0.0001
    16	3.89687776566	0	0.0001
    17	3.8507604599	0	0.0001
    18	3.77833986282	0	0.0001
    19	3.73626494408	0	0.0001
    20	3.69305992126	0	0.0001
    21	3.63173437119	0	0.0001
    22	3.6299328804	0	0.0001
    23	3.58168196678	0	0.0001
    24	3.55267238617	0	0.0001
    25	3.52479696274	0	0.0001
    26	3.5259847641	0	0.0001
    27	3.51134443283	0	0.0001
    28	3.49900507927	0	0.0001
    29	3.47297048569	0	0.0001
    30	3.44809699059	0	0.0001
    31	3.43143081665	0	0.0001
    32	3.39668321609	0	0.0001
    33	3.36041402817	0	0.0001
    34	3.34889793396	0	0.0001
    35	3.32212471962	0	0.0001
    36	3.28746604919	0	0.0001
    37	3.27195429802	0	0.0001
    38	3.24454259872	0	0.0001
    39	3.22033762932	0	0.0001
    40	3.20420598984	0	0.0001
    41	3.13962340355	0	0.0001

Measurement: iin_pp2
  step	Iin_max2 - Iin_min2
     1	2.66799736023
     2	2.80024719238
     3	2.92142057419
     4	3.0403380394
     5	3.14409732819
     6	3.25454425812
     7	3.36764812469
     8	3.49013280869
     9	3.58786201477
    10	3.72958564758
    11	3.82039260864
    12	3.87125253677
    13	3.95859599113
    14	4.03408718109
    15	4.04945230484
    16	4.0719666481
    17	4.1584072113
    18	4.30691194534
    19	4.39601445198
    20	4.48471069336
    21	4.57917165756
    22	4.6049695015
    23	4.69341874123
    24	4.76039886475
    25	4.81745290756
    26	4.79623889923
    27	4.82455968857
    28	4.88080143929
    29	4.90982103348
    30	4.9754011631
    31	4.99537086487
    32	5.05614519119
    33	5.14009714127
    34	5.18690299988
    35	5.22983050346
    36	5.29446315765
    37	5.33164811134
    38	5.37497282028
    39	5.45316243172
    40	5.45104646683
    41	5.5907137394

Measurement: pin_mean2
  step	Vin_mean2 * Iin_mean2
     1	130.920981727
     2	130.906034206
     3	130.878215536
     4	130.874000358
     5	130.884842709
     6	130.900280473
     7	130.966799876
     8	130.972664174
     9	130.918715409
    10	130.936657957
    11	130.951664344
    12	130.922066006
    13	130.937297429
    14	130.923497993
    15	130.909897593
    16	130.91090908
    17	130.943512569
    18	130.9028929
    19	130.930028402
    20	130.941122289
    21	130.904465247
    22	130.905208116
    23	130.943728245
    24	130.895910505
    25	130.959291633
    26	130.929434994
    27	130.909876624
    28	130.982001316
    29	130.927820785
    30	130.947203584
    31	130.943720169
    32	130.969157952
    33	130.959938175
    34	130.964999397
    35	130.919040446
    36	130.954224558
    37	130.915459319
    38	130.889783408
    39	130.941655816
    40	130.939690827
    41	130.929503246

Measurement: iout_mean2
  step	AVG(I(V3))	FROM	TO
     1	4.31771096049	0	0.0001
     2	4.24621230607	0	0.0001
     3	4.17679264092	0	0.0001
     4	4.11006495713	0	0.0001
     5	4.04585926867	0	0.0001
     6	3.98375184932	0	0.0001
     7	3.92501672544	0	0.0001
     8	3.86642639777	0	0.0001
     9	3.80781606447	0	0.0001
    10	3.75299909669	0	0.0001
    11	3.69951763663	0	0.0001
    12	3.64638810481	0	0.0001
    13	3.59581261901	0	0.0001
    14	3.54597431509	0	0.0001
    15	3.4974733635	0	0.0001
    16	3.45056056683	0	0.0001
    17	3.40594189402	0	0.0001
    18	3.36037336442	0	0.0001
    19	3.31774155689	0	0.0001
    20	3.27561202049	0	0.0001
    21	3.23377723374	0	0.0001
    22	3.19370716512	0	0.0001
    23	3.15525232817	0	0.0001
    24	3.11602054646	0	0.0001
    25	3.08025301419	0	0.0001
    26	3.04298629362	0	0.0001
    27	3.00691971899	0	0.0001
    28	2.97360653351	0	0.0001
    29	2.93848424124	0	0.0001
    30	2.90578218444	0	0.0001
    31	2.87330958864	0	0.0001
    32	2.8419893964	0	0.0001
    33	2.81058126579	0	0.0001
    34	2.7803138119	0	0.0001
    35	2.7497320923	0	0.0001
    36	2.72144047956	0	0.0001
    37	2.69206853231	0	0.0001
    38	2.66358295588	0	0.0001
    39	2.63707331214	0	0.0001
    40	2.61012973983	0	0.0001
    41	2.58369434242	0	0.0001

Measurement: iout_max2
  step	MAX(I(V3))	FROM	TO
     1	8.08420276642	0	0.0001
     2	8.10726928711	0	0.0001
     3	8.12969684601	0	0.0001
     4	8.15444374084	0	0.0001
     5	8.17814159393	0	0.0001
     6	8.20171642303	0	0.0001
     7	8.22585868835	0	0.0001
     8	8.24852752686	0	0.0001
     9	8.26845264435	0	0.0001
    10	8.28611660004	0	0.0001
    11	8.30849170685	0	0.0001
    12	8.32773303986	0	0.0001
    13	8.34854984283	0	0.0001
    14	8.3669500351	0	0.0001
    15	8.38671016693	0	0.0001
    16	8.40573978424	0	0.0001
    17	8.42035293579	0	0.0001
    18	8.43877696991	0	0.0001
    19	8.45488071442	0	0.0001
    20	8.47600364685	0	0.0001
    21	8.48763751984	0	0.0001
    22	8.50506782532	0	0.0001
    23	8.52167892456	0	0.0001
    24	8.5353717804	0	0.0001
    25	8.55101108551	0	0.0001
    26	8.56652355194	0	0.0001
    27	8.58180046082	0	0.0001
    28	8.596616745	0	0.0001
    29	8.60919570923	0	0.0001
    30	8.61963939667	0	0.0001
    31	8.63313770294	0	0.0001
    32	8.64986896515	0	0.0001
    33	8.66245651245	0	0.0001
    34	8.67468261719	0	0.0001
    35	8.68575191498	0	0.0001
    36	8.6971206665	0	0.0001
    37	8.70711898804	0	0.0001
    38	8.7207775116	0	0.0001
    39	8.73387622833	0	0.0001
    40	8.74689865112	0	0.0001
    41	8.75552940369	0	0.0001

Measurement: iout_min2
  step	MIN(I(V3))	FROM	TO
     1	-0.133927360177	0	0.0001
     2	-0.216221705079	0	0.0001
     3	-0.296925127506	0	0.0001
     4	-0.373884230852	0	0.0001
     5	-0.446875214577	0	0.0001
     6	-0.521245062351	0	0.0001
     7	-0.590604245663	0	0.0001
     8	-0.660202026367	0	0.0001
     9	-0.731484651566	0	0.0001
    10	-0.796728014946	0	0.0001
    11	-0.867756426334	0	0.0001
    12	-0.934433281422	0	0.0001
    13	-0.998168885708	0	0.0001
    14	-1.06161689758	0	0.0001
    15	-1.12343490124	0	0.0001
    16	-1.18434977531	0	0.0001
    17	-1.24279594421	0	0.0001
    18	-1.30180299282	0	0.0001
    19	-1.35840284824	0	0.0001
    20	-1.41484093666	0	0.0001
    21	-1.47160327435	0	0.0001
    22	-1.52529335022	0	0.0001
    23	-1.57395100594	0	0.0001
    24	-1.62650465965	0	0.0001
    25	-1.67440092564	0	0.0001
    26	-1.71982514858	0	0.0001
    27	-1.76576328278	0	0.0001
    28	-1.80868422985	0	0.0001
    29	-1.85219228268	0	0.0001
    30	-1.89335787296	0	0.0001
    31	-1.92839634418	0	0.0001
    32	-1.96983873844	0	0.0001
    33	-2.00424957275	0	0.0001
    34	-2.04390382767	0	0.0001
    35	-2.0806350708	0	0.0001
    36	-2.11439061165	0	0.0001
    37	-2.15078949928	0	0.0001
    38	-2.1868185997	0	0.0001
    39	-2.22229003906	0	0.0001
    40	-2.25854039192	0	0.0001
    41	-2.28997468948	0	0.0001

Measurement: iout_pp2
  step	Iout_max2 - Iout_min2
     1	8.2181301266
     2	8.32349099219
     3	8.42662197351
     4	8.5283279717
     5	8.62501680851
     6	8.72296148539
     7	8.81646293402
     8	8.90872955322
     9	8.99993729591
    10	9.08284461498
    11	9.17624813318
    12	9.26216632128
    13	9.34671872854
    14	9.42856693268
    15	9.51014506817
    16	9.59008955956
    17	9.66314888
    18	9.74057996273
    19	9.81328356266
    20	9.89084458351
    21	9.95924079418
    22	10.0303611755
    23	10.0956299305
    24	10.16187644
    25	10.2254120111
    26	10.2863487005
    27	10.3475637436
    28	10.4053009748
    29	10.4613879919
    30	10.5129972696
    31	10.5615340471
    32	10.6197077036
    33	10.6667060852
    34	10.7185864449
    35	10.7663869858
    36	10.8115112782
    37	10.8579084873
    38	10.9075961113
    39	10.9561662674
    40	11.005439043
    41	11.0455040932

Measurement: pout_mean2
  step	Vout_mean2 * Iout_mean2
     1	129.643184551
     2	129.617657267
     3	129.58524547
     4	129.568401968
     5	129.565710401
     6	129.567156754
     7	129.617986429
     8	129.614979817
     9	129.552742935
    10	129.56297882
    11	129.565235854
    12	129.526554569
    13	129.526833489
    14	129.503506095
    15	129.479908368
    16	129.467459457
    17	129.495394638
    18	129.442127224
    19	129.457965142
    20	129.451052568
    21	129.413833267
    22	129.406338789
    23	129.425079168
    24	129.373110161
    25	129.427554324
    26	129.382476037
    27	129.351797328
    28	129.404938237
    29	129.345114752
    30	129.357968601
    31	129.348466897
    32	129.358978933
    33	129.334134428
    34	129.330973135
    35	129.282774409
    36	129.312860169
    37	129.262772922
    38	129.226341385
    39	129.25831717
    40	129.242298792
    41	129.224769999

Measurement: loss2
  step	100*(Pin_mean2 - Pout_mean2)/Pin_mean2
     1	0.97600641234
     2	0.984199809367
     3	0.987918471293
     4	0.997599512911
     5	1.00785719821
     6	1.0184269382
     7	1.02988959592
     8	1.03661658376
     9	1.04337448616
    10	1.04911730439
    11	1.05873300406
    12	1.06591003348
    13	1.07720563074
    14	1.0845966688
    15	1.09234614878
    16	1.10261981528
    17	1.10591040537
    18	1.11591550347
    19	1.12431294615
    20	1.1379692605
    21	1.13871744321
    22	1.14500358568
    23	1.15977229112
    24	1.16336739484
    25	1.16962858447
    26	1.18152114291
    27	1.19019231906
    28	1.20403037336
    29	1.20883859719
    30	1.21364560637
    31	1.21827398049
    32	1.22943374101
    33	1.24145121731
    34	1.24768164724
    35	1.24983045394
    36	1.25338788724
    37	1.26240736194
    38	1.27087231703
    39	1.28556389168
    40	1.29631590208
    41	1.30202376413
