LTspice 26.0.1 for Windows
Circuit: C:\Users\afons\OneDrive - Universidade de Lisboa\UNI\Tese\LTSpice sims\EPC23102_Behavioral_Model_LTSPICE\EPC23102_Behavioral_Model_LTSPICE\EPC23102_sim.net
Start Time: Sat Apr 11 20:38:11 2026

.step vbat=30
solver = Normal
Maximum thread count: 12
tnom = 27
temp = 25
method = trap
Per .tran options, skipping operating point for transient analysis.

.step vbat=30.25

.step vbat=30.5

.step vbat=30.75

.step vbat=31

.step vbat=31.25

.step vbat=31.5

.step vbat=31.75

.step vbat=32

.step vbat=32.25

.step vbat=32.5

.step vbat=32.75

.step vbat=33

.step vbat=33.25

.step vbat=33.5

.step vbat=33.75

.step vbat=34

.step vbat=34.25

.step vbat=34.5

.step vbat=34.75

.step vbat=35

.step vbat=35.25

.step vbat=35.5

.step vbat=35.75

.step vbat=36

.step vbat=36.25

.step vbat=36.5

.step vbat=36.75

.step vbat=37

.step vbat=37.25

.step vbat=37.5

.step vbat=37.75

.step vbat=38

.step vbat=38.25

.step vbat=38.5

.step vbat=38.75

.step vbat=39

.step vbat=39.25

.step vbat=39.5

.step vbat=39.75

.step vbat=40

.step vbat=40.25

.step vbat=40.5

.step vbat=40.75

.step vbat=41

.step vbat=41.25

.step vbat=41.5

.step vbat=41.75

.step vbat=42

.step vbat=42.25

.step vbat=42.5

.step vbat=42.75

.step vbat=43

.step vbat=43.25

.step vbat=43.5

.step vbat=43.75

.step vbat=44

.step vbat=44.25

.step vbat=44.5

.step vbat=44.75

.step vbat=45

.step vbat=45.25

.step vbat=45.5

.step vbat=45.75

.step vbat=46

.step vbat=46.25

.step vbat=46.5

.step vbat=46.75

.step vbat=47

.step vbat=47.25

.step vbat=47.5

.step vbat=47.75

.step vbat=48

.step vbat=48.25

.step vbat=48.5

.step vbat=48.75

.step vbat=49

.step vbat=49.25

.step vbat=49.5

.step vbat=49.75

.step vbat=50
Total elapsed time: 3265.719 seconds.

Files loaded:
C:\Users\afons\OneDrive - Universidade de Lisboa\UNI\Tese\LTSpice sims\EPC23102_Behavioral_Model_LTSPICE\EPC23102_Behavioral_Model_LTSPICE\EPC23102_sim.net
C:\Users\afons\OneDrive - Universidade de Lisboa\UNI\Tese\LTSpice sims\EPC23102_Behavioral_Model_LTSPICE\EPC23102_Behavioral_Model_LTSPICE\EPC23102_model.net
C:\Users\afons\OneDrive\Documentos\LTspice\LTSpice_WCAP-ATUL (rev25b)\WCAP-ATUL.lib
C:\Users\afons\OneDrive\Documentos\LTspice\LTSpice_WE-HCF (rev22a)\WE-HCF.lib
C:\Users\afons\OneDrive\Documentos\LTspice\Solar Panel\SolarPanels.lib
C:\Users\afons\OneDrive\Documentos\LTspice\WCAP-HTG5\WCAP-HTG5.lib
C:\Users\afons\AppData\Local\LTspice\lib\cmp\standard.dio


Measurement: vout_mean
  step	AVG(V(Vbat+))	FROM	TO
     1	30.0259177396	0	0.0005
     2	30.2757028574	0	0.0005
     3	30.525493106	0	0.0005
     4	30.7752857725	0	0.0005
     5	31.0250819883	0	0.0005
     6	31.2748808998	0	0.0005
     7	31.5246832347	0	0.0005
     8	31.7744885916	0	0.0005
     9	32.024297472	0	0.0005
    10	32.2741088713	0	0.0005
    11	32.5239240068	0	0.0005
    12	32.7737410705	0	0.0005
    13	33.0235604454	0	0.0005
    14	33.2733834782	0	0.0005
    15	33.523209174	0	0.0005
    16	33.7730375042	0	0.0005
    17	34.0228671888	0	0.0005
    18	34.2727006501	0	0.0005
    19	34.5225361656	0	0.0005
    20	34.7723734145	0	0.0005
    21	35.0222140361	0	0.0005
    22	35.2720557668	0	0.0005
    23	35.5219002985	0	0.0005
    24	35.7717465422	0	0.0005
    25	36.0215952753	0	0.0005
    26	36.2714468185	0	0.0005
    27	36.5212996183	0	0.0005
    28	36.7711534634	0	0.0005
    29	37.0210115219	0	0.0005
    30	37.270869586	0	0.0005
    31	37.5207309376	0	0.0005
    32	37.7705929636	0	0.0005
    33	38.0204572597	0	0.0005
    34	38.270322825	0	0.0005
    35	38.5201912174	0	0.0005
    36	38.7700607947	0	0.0005
    37	39.019932218	0	0.0005
    38	39.269805051	0	0.0005
    39	39.5196795589	0	0.0005
    40	39.7695551384	0	0.0005
    41	40.0194333718	0	0.0005
    42	40.2693117975	0	0.0005
    43	40.5191927492	0	0.0005
    44	40.769075034	0	0.0005
    45	41.0189590096	0	0.0005
    46	41.2688432705	0	0.0005
    47	41.5187294745	0	0.0005
    48	41.7686167575	0	0.0005
    49	42.0185055788	0	0.0005
    50	42.2683959956	0	0.0005
    51	42.5182876949	0	0.0005
    52	42.7681809389	0	0.0005
    53	43.0180749892	0	0.0005
    54	43.2679699359	0	0.0005
    55	43.5178664624	0	0.0005
    56	43.7677636224	0	0.0005
    57	44.017663516	0	0.0005
    58	44.267563126	0	0.0005
    59	44.5174641224	0	0.0005
    60	44.7673662479	0	0.0005
    61	45.0172691401	0	0.0005
    62	45.2671740725	0	0.0005
    63	45.5170792927	0	0.0005
    64	45.7669855441	0	0.0005
    65	46.0168927504	0	0.0005
    66	46.2668016458	0	0.0005
    67	46.5167109225	0	0.0005
    68	46.7666214668	0	0.0005
    69	47.0165324012	0	0.0005
    70	47.2664451111	0	0.0005
    71	47.5163578413	0	0.0005
    72	47.7662731045	0	0.0005
    73	48.0161873398	0	0.0005
    74	48.2661033146	0	0.0005
    75	48.5160200192	0	0.0005
    76	48.7659373478	0	0.0005
    77	49.0158555025	0	0.0005
    78	49.2657751572	0	0.0005
    79	49.5156955509	0	0.0005
    80	49.7656157595	0	0.0005
    81	50.0155379545	0	0.0005

Measurement: vout_max
  step	MAX(V(Vbat+))	FROM	TO
     1	30.0438041687	0	0.0005
     2	30.2937679291	0	0.0005
     3	30.5437431335	0	0.0005
     4	30.793712616	0	0.0005
     5	31.0436878204	0	0.0005
     6	31.2936630249	0	0.0005
     7	31.5436306	0	0.0005
     8	31.7936058044	0	0.0005
     9	32.043586731	0	0.0005
    10	32.2935638428	0	0.0005
    11	32.5435409546	0	0.0005
    12	32.7935142517	0	0.0005
    13	33.0434913635	0	0.0005
    14	33.2934761047	0	0.0005
    15	33.5434494019	0	0.0005
    16	33.7934341431	0	0.0005
    17	34.0434074402	0	0.0005
    18	34.2933998108	0	0.0005
    19	34.5433807373	0	0.0005
    20	34.7933578491	0	0.0005
    21	35.0433387756	0	0.0005
    22	35.2933273315	0	0.0005
    23	35.5433044434	0	0.0005
    24	35.7932891846	0	0.0005
    25	36.0432815552	0	0.0005
    26	36.293258667	0	0.0005
    27	36.5432472229	0	0.0005
    28	36.7932319641	0	0.0005
    29	37.04322052	0	0.0005
    30	37.2932052612	0	0.0005
    31	37.5431900024	0	0.0005
    32	37.7931785583	0	0.0005
    33	38.0431671143	0	0.0005
    34	38.2931594849	0	0.0005
    35	38.5431404114	0	0.0005
    36	38.7931289673	0	0.0005
    37	39.0431175232	0	0.0005
    38	39.2931098938	0	0.0005
    39	39.543094635	0	0.0005
    40	39.7930870056	0	0.0005
    41	40.0430755615	0	0.0005
    42	40.2930641174	0	0.0005
    43	40.5430603027	0	0.0005
    44	40.7930450439	0	0.0005
    45	41.0430374146	0	0.0005
    46	41.2930259705	0	0.0005
    47	41.5430183411	0	0.0005
    48	41.793006897	0	0.0005
    49	42.0429992676	0	0.0005
    50	42.2929916382	0	0.0005
    51	42.5429840088	0	0.0005
    52	42.7929763794	0	0.0005
    53	43.04296875	0	0.0005
    54	43.2929649353	0	0.0005
    55	43.5429573059	0	0.0005
    56	43.7929458618	0	0.0005
    57	44.0429420471	0	0.0005
    58	44.292930603	0	0.0005
    59	44.5429267883	0	0.0005
    60	44.7929153442	0	0.0005
    61	45.0429077148	0	0.0005
    62	45.2929077148	0	0.0005
    63	45.5429000854	0	0.0005
    64	45.7928886414	0	0.0005
    65	46.0428848267	0	0.0005
    66	46.2928848267	0	0.0005
    67	46.5428733826	0	0.0005
    68	46.7928695679	0	0.0005
    69	47.0428619385	0	0.0005
    70	47.2928619385	0	0.0005
    71	47.5428504944	0	0.0005
    72	47.7928504944	0	0.0005
    73	48.0428466797	0	0.0005
    74	48.2928390503	0	0.0005
    75	48.5428276062	0	0.0005
    76	48.7928314209	0	0.0005
    77	49.0428199768	0	0.0005
    78	49.2928199768	0	0.0005
    79	49.5428161621	0	0.0005
    80	49.7928009033	0	0.0005
    81	50.042804718	0	0.0005

Measurement: vout_min
  step	MIN(V(Vbat+))	FROM	TO
     1	29.9996242523	0	0.0005
     2	30.2495555878	0	0.0005
     3	30.4994907379	0	0.0005
     4	30.749420166	0	0.0005
     5	30.9993515015	0	0.0005
     6	31.2492847443	0	0.0005
     7	31.4992084503	0	0.0005
     8	31.7491359711	0	0.0005
     9	31.9990615845	0	0.0005
    10	32.2489776611	0	0.0005
    11	32.4989051819	0	0.0005
    12	32.7488212585	0	0.0005
    13	32.9987373352	0	0.0005
    14	33.2486457825	0	0.0005
    15	33.498550415	0	0.0005
    16	33.7484474182	0	0.0005
    17	33.9983406067	0	0.0005
    18	34.2482223511	0	0.0005
    19	34.4980888367	0	0.0005
    20	34.7479400635	0	0.0005
    21	34.9977684021	0	0.0005
    22	35.2476119995	0	0.0005
    23	35.4974441528	0	0.0005
    24	35.7472801208	0	0.0005
    25	35.9971046448	0	0.0005
    26	36.2469444275	0	0.0005
    27	36.4967765808	0	0.0005
    28	36.7466125488	0	0.0005
    29	36.9964523315	0	0.0005
    30	37.2462882996	0	0.0005
    31	37.496131897	0	0.0005
    32	37.7459716797	0	0.0005
    33	37.9958534241	0	0.0005
    34	38.245677948	0	0.0005
    35	38.4955406189	0	0.0005
    36	38.7453765869	0	0.0005
    37	38.9952201843	0	0.0005
    38	39.245059967	0	0.0005
    39	39.4949073792	0	0.0005
    40	39.7447509766	0	0.0005
    41	39.9945983887	0	0.0005
    42	40.2444572449	0	0.0005
    43	40.494304657	0	0.0005
    44	40.7441596985	0	0.0005
    45	40.99401474	0	0.0005
    46	41.2438926697	0	0.0005
    47	41.4937515259	0	0.0005
    48	41.7436027527	0	0.0005
    49	41.9934234619	0	0.0005
    50	42.2432861328	0	0.0005
    51	42.4931793213	0	0.0005
    52	42.743019104	0	0.0005
    53	42.9928665161	0	0.0005
    54	43.2427330017	0	0.0005
    55	43.4925994873	0	0.0005
    56	43.7424468994	0	0.0005
    57	43.9923057556	0	0.0005
    58	44.2421722412	0	0.0005
    59	44.4920349121	0	0.0005
    60	44.7419052124	0	0.0005
    61	44.991771698	0	0.0005
    62	45.2416305542	0	0.0005
    63	45.4914932251	0	0.0005
    64	45.7413597107	0	0.0005
    65	45.9912223816	0	0.0005
    66	46.2410736084	0	0.0005
    67	46.4909286499	0	0.0005
    68	46.7408218384	0	0.0005
    69	46.9906845093	0	0.0005
    70	47.2405509949	0	0.0005
    71	47.4904403687	0	0.0005
    72	47.7402839661	0	0.0005
    73	47.9901733398	0	0.0005
    74	48.2400436401	0	0.0005
    75	48.4899177551	0	0.0005
    76	48.7397689819	0	0.0005
    77	48.9896507263	0	0.0005
    78	49.2395210266	0	0.0005
    79	49.4893989563	0	0.0005
    80	49.7392730713	0	0.0005
    81	49.9891471863	0	0.0005

Measurement: vin_mean
  step	AVG(V(Vpv+))	FROM	TO
     1	22.0301461792	0	0.0005
     2	22.0302342949	0	0.0005
     3	22.0301092329	0	0.0005
     4	22.0298813043	0	0.0005
     5	22.0298096537	0	0.0005
     6	22.0298601227	0	0.0005
     7	22.0299020095	0	0.0005
     8	22.0296108237	0	0.0005
     9	22.029221283	0	0.0005
    10	22.0290888838	0	0.0005
    11	22.0290869504	0	0.0005
    12	22.0290049328	0	0.0005
    13	22.0289837209	0	0.0005
    14	22.0291483739	0	0.0005
    15	22.0290003705	0	0.0005
    16	22.0285056668	0	0.0005
    17	22.0290542614	0	0.0005
    18	22.0286200118	0	0.0005
    19	22.0287385552	0	0.0005
    20	22.0286960149	0	0.0005
    21	22.0287424156	0	0.0005
    22	22.028451504	0	0.0005
    23	22.028726438	0	0.0005
    24	22.028648984	0	0.0005
    25	22.0284678581	0	0.0005
    26	22.0285554006	0	0.0005
    27	22.0282363976	0	0.0005
    28	22.0283978754	0	0.0005
    29	22.0281325785	0	0.0005
    30	22.0283790209	0	0.0005
    31	22.0281606842	0	0.0005
    32	22.0281485441	0	0.0005
    33	22.0283031095	0	0.0005
    34	22.0280346209	0	0.0005
    35	22.0280578384	0	0.0005
    36	22.0285272772	0	0.0005
    37	22.0279921281	0	0.0005
    38	22.0280041516	0	0.0005
    39	22.0281137665	0	0.0005
    40	22.0280615567	0	0.0005
    41	22.0277812423	0	0.0005
    42	22.02811734	0	0.0005
    43	22.0283237078	0	0.0005
    44	22.0280968645	0	0.0005
    45	22.0277636116	0	0.0005
    46	22.0279934598	0	0.0005
    47	22.0276392887	0	0.0005
    48	22.0280092828	0	0.0005
    49	22.0282349567	0	0.0005
    50	22.0284632313	0	0.0005
    51	22.0277351269	0	0.0005
    52	22.0277232433	0	0.0005
    53	22.0281830376	0	0.0005
    54	22.0276069967	0	0.0005
    55	22.0278925141	0	0.0005
    56	22.028013163	0	0.0005
    57	22.0275898513	0	0.0005
    58	22.0278770918	0	0.0005
    59	22.0278651648	0	0.0005
    60	22.0279511329	0	0.0005
    61	22.0282798722	0	0.0005
    62	22.0280999519	0	0.0005
    63	22.0282192805	0	0.0005
    64	22.0281411999	0	0.0005
    65	22.0280562279	0	0.0005
    66	22.028066561	0	0.0005
    67	22.0283678255	0	0.0005
    68	22.0282997921	0	0.0005
    69	22.0278765874	0	0.0005
    70	22.0280402178	0	0.0005
    71	22.0281370845	0	0.0005
    72	22.0281834453	0	0.0005
    73	22.027670597	0	0.0005
    74	22.0282840792	0	0.0005
    75	22.0282008324	0	0.0005
    76	22.0283141418	0	0.0005
    77	22.0284848474	0	0.0005
    78	22.0283905897	0	0.0005
    79	22.0282954982	0	0.0005
    80	22.0284099156	0	0.0005
    81	22.028425011	0	0.0005

Measurement: vin_max
  step	MAX(V(Vpv+))	FROM	TO
     1	22.0362167358	0	0.0005
     2	22.0363788605	0	0.0005
     3	22.0364875793	0	0.0005
     4	22.0360794067	0	0.0005
     5	22.0362129211	0	0.0005
     6	22.0366153717	0	0.0005
     7	22.0362472534	0	0.0005
     8	22.0360736847	0	0.0005
     9	22.0362262726	0	0.0005
    10	22.036113739	0	0.0005
    11	22.0365924835	0	0.0005
    12	22.0360050201	0	0.0005
    13	22.0359115601	0	0.0005
    14	22.03673172	0	0.0005
    15	22.0362586975	0	0.0005
    16	22.0359363556	0	0.0005
    17	22.0362262726	0	0.0005
    18	22.0363826752	0	0.0005
    19	22.0364131927	0	0.0005
    20	22.0363235474	0	0.0005
    21	22.0365753174	0	0.0005
    22	22.0363368988	0	0.0005
    23	22.0365867615	0	0.0005
    24	22.0365428925	0	0.0005
    25	22.0371189117	0	0.0005
    26	22.0366420746	0	0.0005
    27	22.0365867615	0	0.0005
    28	22.0372219086	0	0.0005
    29	22.0368041992	0	0.0005
    30	22.0370578766	0	0.0005
    31	22.0367164612	0	0.0005
    32	22.0367965698	0	0.0005
    33	22.0369606018	0	0.0005
    34	22.0374946594	0	0.0005
    35	22.0366725922	0	0.0005
    36	22.0371589661	0	0.0005
    37	22.0365409851	0	0.0005
    38	22.0366134644	0	0.0005
    39	22.0368041992	0	0.0005
    40	22.037191391	0	0.0005
    41	22.0369091034	0	0.0005
    42	22.0369472504	0	0.0005
    43	22.037612915	0	0.0005
    44	22.0372314453	0	0.0005
    45	22.0375404358	0	0.0005
    46	22.0370292664	0	0.0005
    47	22.0367431641	0	0.0005
    48	22.0373706818	0	0.0005
    49	22.0379123688	0	0.0005
    50	22.0379047394	0	0.0005
    51	22.0370044708	0	0.0005
    52	22.037399292	0	0.0005
    53	22.0378017426	0	0.0005
    54	22.0375328064	0	0.0005
    55	22.0380840302	0	0.0005
    56	22.0378265381	0	0.0005
    57	22.0375747681	0	0.0005
    58	22.0378875732	0	0.0005
    59	22.0377254486	0	0.0005
    60	22.037405014	0	0.0005
    61	22.0378074646	0	0.0005
    62	22.0380039215	0	0.0005
    63	22.0379695892	0	0.0005
    64	22.037771225	0	0.0005
    65	22.0381946564	0	0.0005
    66	22.038394928	0	0.0005
    67	22.0384292603	0	0.0005
    68	22.0384311676	0	0.0005
    69	22.0377368927	0	0.0005
    70	22.0384273529	0	0.0005
    71	22.0382423401	0	0.0005
    72	22.0388259888	0	0.0005
    73	22.0380935669	0	0.0005
    74	22.0386581421	0	0.0005
    75	22.0380992889	0	0.0005
    76	22.0391979218	0	0.0005
    77	22.0389041901	0	0.0005
    78	22.0392284393	0	0.0005
    79	22.038646698	0	0.0005
    80	22.0387096405	0	0.0005
    81	22.0386047363	0	0.0005

Measurement: vin_min
  step	MIN(V(Vpv+))	FROM	TO
     1	22.0255222321	0	0.0005
     2	22.0258045197	0	0.0005
     3	22.0254135132	0	0.0005
     4	22.0250530243	0	0.0005
     5	22.0246696472	0	0.0005
     6	22.024389267	0	0.0005
     7	22.0247898102	0	0.0005
     8	22.0245952606	0	0.0005
     9	22.023519516	0	0.0005
    10	22.023481369	0	0.0005
    11	22.0231704712	0	0.0005
    12	22.0234928131	0	0.0005
    13	22.0233402252	0	0.0005
    14	22.0228099823	0	0.0005
    15	22.0230045319	0	0.0005
    16	22.0221652985	0	0.0005
    17	22.023103714	0	0.0005
    18	22.0222148895	0	0.0005
    19	22.021572113	0	0.0005
    20	22.022277832	0	0.0005
    21	22.0219326019	0	0.0005
    22	22.0217075348	0	0.0005
    23	22.0219898224	0	0.0005
    24	22.0218753815	0	0.0005
    25	22.0209140778	0	0.0005
    26	22.021692276	0	0.0005
    27	22.0207843781	0	0.0005
    28	22.0204639435	0	0.0005
    29	22.0203285217	0	0.0005
    30	22.0203285217	0	0.0005
    31	22.0205383301	0	0.0005
    32	22.0204792023	0	0.0005
    33	22.0201950073	0	0.0005
    34	22.0194034576	0	0.0005
    35	22.020072937	0	0.0005
    36	22.0204620361	0	0.0005
    37	22.0200519562	0	0.0005
    38	22.0199890137	0	0.0005
    39	22.020154953	0	0.0005
    40	22.0193405151	0	0.0005
    41	22.0194129944	0	0.0005
    42	22.0195064545	0	0.0005
    43	22.0192489624	0	0.0005
    44	22.0193367004	0	0.0005
    45	22.0188007355	0	0.0005
    46	22.019197464	0	0.0005
    47	22.0188503265	0	0.0005
    48	22.0190582275	0	0.0005
    49	22.0193214417	0	0.0005
    50	22.019329071	0	0.0005
    51	22.0186100006	0	0.0005
    52	22.0184669495	0	0.0005
    53	22.0184879303	0	0.0005
    54	22.0176315308	0	0.0005
    55	22.0177249908	0	0.0005
    56	22.0181427002	0	0.0005
    57	22.0177593231	0	0.0005
    58	22.0180168152	0	0.0005
    59	22.0180397034	0	0.0005
    60	22.0180969238	0	0.0005
    61	22.0185432434	0	0.0005
    62	22.0181331635	0	0.0005
    63	22.0181980133	0	0.0005
    64	22.0182170868	0	0.0005
    65	22.0175819397	0	0.0005
    66	22.0173969269	0	0.0005
    67	22.0182304382	0	0.0005
    68	22.0178813934	0	0.0005
    69	22.017539978	0	0.0005
    70	22.0174636841	0	0.0005
    71	22.017906189	0	0.0005
    72	22.0177249908	0	0.0005
    73	22.0167541504	0	0.0005
    74	22.0174026489	0	0.0005
    75	22.0176334381	0	0.0005
    76	22.0169830322	0	0.0005
    77	22.0175418854	0	0.0005
    78	22.0170440674	0	0.0005
    79	22.0170192719	0	0.0005
    80	22.0172748566	0	0.0005
    81	22.0172042847	0	0.0005

Measurement: iin_mean
  step	AVG(Ix(U4:1))	FROM	TO
     1	5.91935857868	0	0.0005
     2	5.91921018825	0	0.0005
     3	5.91947771545	0	0.0005
     4	5.91953194775	0	0.0005
     5	5.91958673835	0	0.0005
     6	5.91950806405	0	0.0005
     7	5.91951042974	0	0.0005
     8	5.91948284239	0	0.0005
     9	5.91966720197	0	0.0005
    10	5.9196696744	0	0.0005
    11	5.91989219353	0	0.0005
    12	5.91981441546	0	0.0005
    13	5.91965698318	0	0.0005
    14	5.91970238961	0	0.0005
    15	5.9198585007	0	0.0005
    16	5.92005056137	0	0.0005
    17	5.9197590788	0	0.0005
    18	5.91997626788	0	0.0005
    19	5.92005753664	0	0.0005
    20	5.91992408782	0	0.0005
    21	5.92005965911	0	0.0005
    22	5.91995049124	0	0.0005
    23	5.91989597169	0	0.0005
    24	5.91983024741	0	0.0005
    25	5.91982343635	0	0.0005
    26	5.91997827227	0	0.0005
    27	5.92000307464	0	0.0005
    28	5.9196934359	0	0.0005
    29	5.92012312171	0	0.0005
    30	5.919839698	0	0.0005
    31	5.92013975687	0	0.0005
    32	5.91992994776	0	0.0005
    33	5.91989544214	0	0.0005
    34	5.91977939283	0	0.0005
    35	5.92001587704	0	0.0005
    36	5.91991290468	0	0.0005
    37	5.9200671122	0	0.0005
    38	5.92008033041	0	0.0005
    39	5.92007398173	0	0.0005
    40	5.91990374986	0	0.0005
    41	5.92024199126	0	0.0005
    42	5.91999927886	0	0.0005
    43	5.92002373901	0	0.0005
    44	5.9201291609	0	0.0005
    45	5.92036882466	0	0.0005
    46	5.92009517301	0	0.0005
    47	5.92019434257	0	0.0005
    48	5.92000302871	0	0.0005
    49	5.91985007978	0	0.0005
    50	5.91990027569	0	0.0005
    51	5.92009162082	0	0.0005
    52	5.92028612544	0	0.0005
    53	5.92015621871	0	0.0005
    54	5.92017338903	0	0.0005
    55	5.92012534497	0	0.0005
    56	5.91987865603	0	0.0005
    57	5.9203134023	0	0.0005
    58	5.92020155289	0	0.0005
    59	5.92014610562	0	0.0005
    60	5.92014364644	0	0.0005
    61	5.91987694777	0	0.0005
    62	5.92013543129	0	0.0005
    63	5.9200018876	0	0.0005
    64	5.91999051112	0	0.0005
    65	5.91987170407	0	0.0005
    66	5.92005020441	0	0.0005
    67	5.91999639719	0	0.0005
    68	5.92003189325	0	0.0005
    69	5.91991540501	0	0.0005
    70	5.92002431595	0	0.0005
    71	5.91988353655	0	0.0005
    72	5.92032929598	0	0.0005
    73	5.92015234828	0	0.0005
    74	5.92000209685	0	0.0005
    75	5.92003235938	0	0.0005
    76	5.91979594097	0	0.0005
    77	5.91974293357	0	0.0005
    78	5.91989324699	0	0.0005
    79	5.920039076	0	0.0005
    80	5.91973244733	0	0.0005
    81	5.91991272588	0	0.0005

Measurement: iin_max
  step	MAX(Ix(U4:1))	FROM	TO
     1	6.40293264389	0	0.0005
     2	6.4146323204	0	0.0005
     3	6.42901182175	0	0.0005
     4	6.43518257141	0	0.0005
     5	6.45063924789	0	0.0005
     6	6.46677064896	0	0.0005
     7	6.48117733002	0	0.0005
     8	6.4836306572	0	0.0005
     9	6.49498271942	0	0.0005
    10	6.49218273163	0	0.0005
    11	6.51553201675	0	0.0005
    12	6.52611255646	0	0.0005
    13	6.53762435913	0	0.0005
    14	6.55165624619	0	0.0005
    15	6.56800842285	0	0.0005
    16	6.58290195465	0	0.0005
    17	6.59056758881	0	0.0005
    18	6.59682750702	0	0.0005
    19	6.60900402069	0	0.0005
    20	6.61919307709	0	0.0005
    21	6.61738681793	0	0.0005
    22	6.62665128708	0	0.0005
    23	6.63168954849	0	0.0005
    24	6.64661741257	0	0.0005
    25	6.65204763412	0	0.0005
    26	6.65239620209	0	0.0005
    27	6.65553855896	0	0.0005
    28	6.66294717789	0	0.0005
    29	6.64471340179	0	0.0005
    30	6.65785741806	0	0.0005
    31	6.6691775322	0	0.0005
    32	6.67846775055	0	0.0005
    33	6.692299366	0	0.0005
    34	6.70487213135	0	0.0005
    35	6.7164273262	0	0.0005
    36	6.7149438858	0	0.0005
    37	6.72954797745	0	0.0005
    38	6.74212884903	0	0.0005
    39	6.74185800552	0	0.0005
    40	6.76356935501	0	0.0005
    41	6.76708030701	0	0.0005
    42	6.77395963669	0	0.0005
    43	6.76037502289	0	0.0005
    44	6.78705835342	0	0.0005
    45	6.7810049057	0	0.0005
    46	6.80780172348	0	0.0005
    47	6.80546140671	0	0.0005
    48	6.80608272552	0	0.0005
    49	6.81431102753	0	0.0005
    50	6.81154346466	0	0.0005
    51	6.8150472641	0	0.0005
    52	6.81068229675	0	0.0005
    53	6.80139017105	0	0.0005
    54	6.7983956337	0	0.0005
    55	6.79907608032	0	0.0005
    56	6.80491733551	0	0.0005
    57	6.79937410355	0	0.0005
    58	6.80765008926	0	0.0005
    59	6.81184196472	0	0.0005
    60	6.81678342819	0	0.0005
    61	6.82174921036	0	0.0005
    62	6.82789468765	0	0.0005
    63	6.83251523972	0	0.0005
    64	6.83682441711	0	0.0005
    65	6.8433508873	0	0.0005
    66	6.85027503967	0	0.0005
    67	6.86082267761	0	0.0005
    68	6.86772632599	0	0.0005
    69	6.8733048439	0	0.0005
    70	6.88220453262	0	0.0005
    71	6.89447259903	0	0.0005
    72	6.89329051971	0	0.0005
    73	6.91307735443	0	0.0005
    74	6.90406179428	0	0.0005
    75	6.91047143936	0	0.0005
    76	6.90164375305	0	0.0005
    77	6.90121269226	0	0.0005
    78	6.90637397766	0	0.0005
    79	6.92368936539	0	0.0005
    80	6.90804195404	0	0.0005
    81	6.91554260254	0	0.0005

Measurement: iin_min
  step	MIN(Ix(U4:1))	FROM	TO
     1	5.43323469162	0	0.0005
     2	5.42146587372	0	0.0005
     3	5.40744876862	0	0.0005
     4	5.4018330574	0	0.0005
     5	5.38468503952	0	0.0005
     6	5.37148666382	0	0.0005
     7	5.35564088821	0	0.0005
     8	5.35280323029	0	0.0005
     9	5.3417429924	0	0.0005
    10	5.34264469147	0	0.0005
    11	5.31974744797	0	0.0005
    12	5.30931520462	0	0.0005
    13	5.2987165451	0	0.0005
    14	5.28366661072	0	0.0005
    15	5.26725816727	0	0.0005
    16	5.25383615494	0	0.0005
    17	5.2437081337	0	0.0005
    18	5.23493814468	0	0.0005
    19	5.22549247742	0	0.0005
    20	5.21478509903	0	0.0005
    21	5.21878623962	0	0.0005
    22	5.20852136612	0	0.0005
    23	5.20261669159	0	0.0005
    24	5.18746614456	0	0.0005
    25	5.18100309372	0	0.0005
    26	5.18470287323	0	0.0005
    27	5.18243646622	0	0.0005
    28	5.1719622612	0	0.0005
    29	5.1923160553	0	0.0005
    30	5.17805957794	0	0.0005
    31	5.16600418091	0	0.0005
    32	5.15817165375	0	0.0005
    33	5.13857746124	0	0.0005
    34	5.12626647949	0	0.0005
    35	5.11495304108	0	0.0005
    36	5.12032032013	0	0.0005
    37	5.10386657715	0	0.0005
    38	5.09269380569	0	0.0005
    39	5.08965539932	0	0.0005
    40	5.07105779648	0	0.0005
    41	5.06630563736	0	0.0005
    42	5.06143569946	0	0.0005
    43	5.07415151596	0	0.0005
    44	5.04469537735	0	0.0005
    45	5.05383062363	0	0.0005
    46	5.02831220627	0	0.0005
    47	5.02850341797	0	0.0005
    48	5.02353811264	0	0.0005
    49	5.01841259003	0	0.0005
    50	5.01647853851	0	0.0005
    51	5.01675701141	0	0.0005
    52	5.0194196701	0	0.0005
    53	5.03338766098	0	0.0005
    54	5.03872013092	0	0.0005
    55	5.03524589539	0	0.0005
    56	5.03107976913	0	0.0005
    57	5.03533363342	0	0.0005
    58	5.02991962433	0	0.0005
    59	5.02408742905	0	0.0005
    60	5.01850748062	0	0.0005
    61	5.01477861404	0	0.0005
    62	5.00825738907	0	0.0005
    63	5.00429296494	0	0.0005
    64	4.99832963943	0	0.0005
    65	4.99370384216	0	0.0005
    66	4.98465013504	0	0.0005
    67	4.97499752045	0	0.0005
    68	4.96854352951	0	0.0005
    69	4.96203899384	0	0.0005
    70	4.95106744766	0	0.0005
    71	4.9383354187	0	0.0005
    72	4.94086122513	0	0.0005
    73	4.91885995865	0	0.0005
    74	4.93020248413	0	0.0005
    75	4.92277145386	0	0.0005
    76	4.93047761917	0	0.0005
    77	4.93583679199	0	0.0005
    78	4.92823886871	0	0.0005
    79	4.90738248825	0	0.0005
    80	4.92788171768	0	0.0005
    81	4.92056560516	0	0.0005

Measurement: delta_iin
  step	Iin_max - Iin_min
     1	0.969697952271
     2	0.993166446686
     3	1.02156305313
     4	1.03334951401
     5	1.06595420837
     6	1.09528398514
     7	1.1255364418
     8	1.13082742691
     9	1.15323972702
    10	1.14953804016
    11	1.19578456879
    12	1.21679735184
    13	1.23890781403
    14	1.26798963547
    15	1.30075025558
    16	1.32906579971
    17	1.34685945511
    18	1.36188936234
    19	1.38351154327
    20	1.40440797806
    21	1.39860057831
    22	1.41812992096
    23	1.4290728569
    24	1.45915126801
    25	1.47104454041
    26	1.46769332886
    27	1.47310209274
    28	1.49098491669
    29	1.4523973465
    30	1.47979784012
    31	1.50317335129
    32	1.5202960968
    33	1.55372190475
    34	1.57860565186
    35	1.60147428513
    36	1.59462356567
    37	1.6256814003
    38	1.64943504333
    39	1.6522026062
    40	1.69251155853
    41	1.70077466965
    42	1.71252393723
    43	1.68622350693
    44	1.74236297607
    45	1.72717428207
    46	1.77948951721
    47	1.77695798874
    48	1.78254461288
    49	1.7958984375
    50	1.79506492615
    51	1.79829025269
    52	1.79126262665
    53	1.76800251007
    54	1.75967550278
    55	1.76383018494
    56	1.77383756638
    57	1.76404047012
    58	1.77773046494
    59	1.78775453568
    60	1.79827594757
    61	1.80697059631
    62	1.81963729858
    63	1.82822227478
    64	1.83849477768
    65	1.84964704514
    66	1.86562490463
    67	1.88582515717
    68	1.89918279648
    69	1.91126585007
    70	1.93113708496
    71	1.95613718033
    72	1.95242929459
    73	1.99421739578
    74	1.97385931015
    75	1.9876999855
    76	1.97116613388
    77	1.96537590027
    78	1.97813510895
    79	2.01630687714
    80	1.98016023636
    81	1.99497699738

Measurement: iout_mean
  step	AVG(I(Vbat))	FROM	TO
     1	4.31962343429	0	0.0005
     2	4.28381053934	0	0.0005
     3	4.24885119744	0	0.0005
     4	4.21429471062	0	0.0005
     5	4.18033130228	0	0.0005
     6	4.1468158922	0	0.0005
     7	4.11387312358	0	0.0005
     8	4.08143213778	0	0.0005
     9	4.04957756593	0	0.0005
    10	4.01814554403	0	0.0005
    11	3.98733542281	0	0.0005
    12	3.95684674338	0	0.0005
    13	3.92673994692	0	0.0005
    14	3.89724761811	0	0.0005
    15	3.86819556767	0	0.0005
    16	3.83958449211	0	0.0005
    17	3.81119750092	0	0.0005
    18	3.78344294028	0	0.0005
    19	3.75602826126	0	0.0005
    20	3.7289037254	0	0.0005
    21	3.70233862544	0	0.0005
    22	3.67596037032	0	0.0005
    23	3.6500509265	0	0.0005
    24	3.62442151506	0	0.0005
    25	3.59921138458	0	0.0005
    26	3.57447009749	0	0.0005
    27	3.54993564868	0	0.0005
    28	3.52557808127	0	0.0005
    29	3.50192029358	0	0.0005
    30	3.47826500601	0	0.0005
    31	3.45515670625	0	0.0005
    32	3.43216082625	0	0.0005
    33	3.40954300004	0	0.0005
    34	3.38713750782	0	0.0005
    35	3.36520191716	0	0.0005
    36	3.34346648357	0	0.0005
    37	3.32203472192	0	0.0005
    38	3.30084136442	0	0.0005
    39	3.27992651566	0	0.0005
    40	3.25918999804	0	0.0005
    41	3.23889436009	0	0.0005
    42	3.21863393057	0	0.0005
    43	3.19879126353	0	0.0005
    44	3.17917383539	0	0.0005
    45	3.15983414997	0	0.0005
    46	3.14054415117	0	0.0005
    47	3.1215781685	0	0.0005
    48	3.102793378	0	0.0005
    49	3.08426458834	0	0.0005
    50	3.06599975396	0	0.0005
    51	3.04794949041	0	0.0005
    52	3.03015730262	0	0.0005
    53	3.01249893438	0	0.0005
    54	2.99498814717	0	0.0005
    55	2.97774428177	0	0.0005
    56	2.9606039433	0	0.0005
    57	2.94391879411	0	0.0005
    58	2.92718790606	0	0.0005
    59	2.91068736938	0	0.0005
    60	2.89437615385	0	0.0005
    61	2.87818965391	0	0.0005
    62	2.86234633944	0	0.0005
    63	2.84655098378	0	0.0005
    64	2.83092622629	0	0.0005
    65	2.81546035205	0	0.0005
    66	2.80027485011	0	0.0005
    67	2.78515308907	0	0.0005
    68	2.77024375289	0	0.0005
    69	2.75540109762	0	0.0005
    70	2.74084910277	0	0.0005
    71	2.72630486746	0	0.0005
    72	2.71218289376	0	0.0005
    73	2.69789152263	0	0.0005
    74	2.68388565233	0	0.0005
    75	2.67000630343	0	0.0005
    76	2.65622516819	0	0.0005
    77	2.64258351118	0	0.0005
    78	2.629193048	0	0.0005
    79	2.61592714668	0	0.0005
    80	2.60262497173	0	0.0005
    81	2.58966377751	0	0.0005

Measurement: iout_max
  step	MAX(I(Vbat))	FROM	TO
     1	7.30075550079	0	0.0005
     2	7.2947845459	0	0.0005
     3	7.29045200348	0	0.0005
     4	7.28553342819	0	0.0005
     5	7.28118467331	0	0.0005
     6	7.27717208862	0	0.0005
     7	7.27183914185	0	0.0005
     8	7.26766252518	0	0.0005
     9	7.26473379135	0	0.0005
    10	7.26032829285	0	0.0005
    11	7.256939888	0	0.0005
    12	7.25216341019	0	0.0005
    13	7.24863672256	0	0.0005
    14	7.24586868286	0	0.0005
    15	7.24160718918	0	0.0005
    16	7.23908042908	0	0.0005
    17	7.23470830917	0	0.0005
    18	7.23303985596	0	0.0005
    19	7.2299284935	0	0.0005
    20	7.22617006302	0	0.0005
    21	7.22320127487	0	0.0005
    22	7.22090482712	0	0.0005
    23	7.21741724014	0	0.0005
    24	7.2147321701	0	0.0005
    25	7.21344709396	0	0.0005
    26	7.20967721939	0	0.0005
    27	7.20794725418	0	0.0005
    28	7.20561599731	0	0.0005
    29	7.20346546173	0	0.0005
    30	7.20085525513	0	0.0005
    31	7.19841480255	0	0.0005
    32	7.19633722305	0	0.0005
    33	7.19431686401	0	0.0005
    34	7.19317150116	0	0.0005
    35	7.19004869461	0	0.0005
    36	7.18822574615	0	0.0005
    37	7.18628931046	0	0.0005
    38	7.18470859528	0	0.0005
    39	7.18246030807	0	0.0005
    40	7.18126344681	0	0.0005
    41	7.17918491364	0	0.0005
    42	7.17729043961	0	0.0005
    43	7.17643690109	0	0.0005
    44	7.17444229126	0	0.0005
    45	7.17274904251	0	0.0005
    46	7.17110347748	0	0.0005
    47	7.16969299316	0	0.0005
    48	7.16807985306	0	0.0005
    49	7.16657733917	0	0.0005
    50	7.16522979736	0	0.0005
    51	7.16409015656	0	0.0005
    52	7.16257810593	0	0.0005
    53	7.16154384613	0	0.0005
    54	7.16087341309	0	0.0005
    55	7.15986251831	0	0.0005
    56	7.15783882141	0	0.0005
    57	7.1570687294	0	0.0005
    58	7.15531349182	0	0.0005
    59	7.15423822403	0	0.0005
    60	7.15277385712	0	0.0005
    61	7.1514878273	0	0.0005
    62	7.15114927292	0	0.0005
    63	7.14977693558	0	0.0005
    64	7.14832830429	0	0.0005
    65	7.14760780334	0	0.0005
    66	7.14765167236	0	0.0005
    67	7.14540100098	0	0.0005
    68	7.14480018616	0	0.0005
    69	7.14369916916	0	0.0005
    70	7.14346313477	0	0.0005
    71	7.1414513588	0	0.0005
    72	7.14166498184	0	0.0005
    73	7.140873909	0	0.0005
    74	7.13960361481	0	0.0005
    75	7.13823795319	0	0.0005
    76	7.13859224319	0	0.0005
    77	7.1365237236	0	0.0005
    78	7.13695001602	0	0.0005
    79	7.13583278656	0	0.0005
    80	7.13378715515	0	0.0005
    81	7.13400316238	0	0.0005

Measurement: iout_min
  step	MIN(I(Vbat))	FROM	TO
     1	-0.0626108050346	0	0.0005
     2	-0.0741755738854	0	0.0005
     3	-0.0847250968218	0	0.0005
     4	-0.0965990126133	0	0.0005
     5	-0.108127504587	0	0.0005
     6	-0.119329899549	0	0.0005
     7	-0.131875544786	0	0.0005
     8	-0.143886700273	0	0.0005
     9	-0.156345650554	0	0.0005
    10	-0.170107319951	0	0.0005
    11	-0.182534620166	0	0.0005
    12	-0.196232318878	0	0.0005
    13	-0.210596159101	0	0.0005
    14	-0.225813701749	0	0.0005
    15	-0.241422683001	0	0.0005
    16	-0.258640736341	0	0.0005
    17	-0.276799052954	0	0.0005
    18	-0.296427100897	0	0.0005
    19	-0.31859883666	0	0.0005
    20	-0.343310713768	0	0.0005
    21	-0.372114568949	0	0.0005
    22	-0.397700995207	0	0.0005
    23	-0.425695449114	0	0.0005
    24	-0.453287512064	0	0.0005
    25	-0.482741981745	0	0.0005
    26	-0.509319126606	0	0.0005
    27	-0.537089765072	0	0.0005
    28	-0.564769268036	0	0.0005
    29	-0.591185510159	0	0.0005
    30	-0.618560492992	0	0.0005
    31	-0.644472301006	0	0.0005
    32	-0.671155452728	0	0.0005
    33	-0.6913408041	0	0.0005
    34	-0.720336794853	0	0.0005
    35	-0.743434548378	0	0.0005
    36	-0.770305156708	0	0.0005
    37	-0.796798884869	0	0.0005
    38	-0.823302507401	0	0.0005
    39	-0.8489164114	0	0.0005
    40	-0.874690592289	0	0.0005
    41	-0.900308907032	0	0.0005
    42	-0.923639416695	0	0.0005
    43	-0.949060082436	0	0.0005
    44	-0.973083019257	0	0.0005
    45	-0.997736871243	0	0.0005
    46	-1.0176513195	0	0.0005
    47	-1.04151916504	0	0.0005
    48	-1.0660892725	0	0.0005
    49	-1.09579122066	0	0.0005
    50	-1.11904835701	0	0.0005
    51	-1.13660979271	0	0.0005
    52	-1.16380047798	0	0.0005
    53	-1.18878281116	0	0.0005
    54	-1.21113920212	0	0.0005
    55	-1.23330295086	0	0.0005
    56	-1.25867676735	0	0.0005
    57	-1.28206956387	0	0.0005
    58	-1.30452871323	0	0.0005
    59	-1.32746696472	0	0.0005
    60	-1.34887969494	0	0.0005
    61	-1.37155032158	0	0.0005
    62	-1.39474093914	0	0.0005
    63	-1.4180907011	0	0.0005
    64	-1.44000720978	0	0.0005
    65	-1.46315646172	0	0.0005
    66	-1.48771440983	0	0.0005
    67	-1.51182460785	0	0.0005
    68	-1.52977573872	0	0.0005
    69	-1.55242049694	0	0.0005
    70	-1.57453846931	0	0.0005
    71	-1.59334456921	0	0.0005
    72	-1.61912178993	0	0.0005
    73	-1.63774311543	0	0.0005
    74	-1.65917539597	0	0.0005
    75	-1.68034803867	0	0.0005
    76	-1.70517909527	0	0.0005
    77	-1.7250648737	0	0.0005
    78	-1.74650931358	0	0.0005
    79	-1.76709103584	0	0.0005
    80	-1.78774416447	0	0.0005
    81	-1.8086861372	0	0.0005

Measurement: pout_mean
  step	Vout_mean * Iout_mean
     1	129.700657904
     2	129.695374986
     3	129.698277936
     4	129.696124049
     5	129.695121391
     6	129.691173142
     7	129.688547088
     8	129.685418899
     9	129.684876607
    10	129.682066749
    11	129.683794281
    12	129.680670623
    13	129.674933991
    14	129.674614507
    15	129.674329141
    16	129.674431053
    17	129.667866404
    18	129.668807319
    19	129.667621488
    20	129.662832766
    21	129.664095774
    22	129.658679179
    23	129.656745095
    24	129.651887799
    25	129.649335806
    26	129.651202045
    27	129.648263451
    28	129.639572673
    29	129.644631538
    30	129.637961425
    31	129.640005122
    32	129.634749554
    33	129.632383908
    34	129.626845877
    35	129.628221334
    36	129.626398833
    37	129.625569675
    38	129.623396885
    39	129.621644876
    40	129.616536333
    41	129.618717042
    42	129.612173312
    43	129.612439772
    44	129.611976641
    45	129.613107475
    46	129.606624358
    47	129.603959511
    48	129.599387483
    49	129.596188812
    50	129.594891723
    51	129.593593313
    52	129.594315792
    53	129.591905064
    54	129.58705711
    55	129.585078013
    56	129.57901357
    57	129.584426897
    58	129.579475413
    59	129.576420538
    60	129.573597338
    61	129.568238286
    62	129.570330003
    63	129.56668684
    64	129.562959675
    65	129.558737063
    66	129.559761044
    67	129.556161119
    68	129.554940962
    69	129.549404984
    70	129.550193674
    71	129.544077667
    72	129.550868813
    73	129.542464773
    74	129.54070218
    75	129.538079269
    76	129.533310134
    77	129.528491537
    78	129.529233548
    79	129.529452178
    80	129.521234309
    81	129.523426954

Measurement: pin_mean
  step	Vin_mean * Iin_mean
     1	130.404334776
     2	130.401587288
     3	130.406740673
     4	130.406586186
     5	130.407369074
     6	130.405934646
     7	130.406234711
     8	130.403903295
     9	130.405658714
    10	130.40492942
    11	130.409819868
    12	130.407620959
    13	130.404027316
    14	130.40600227
    15	130.408565105
    16	130.409867339
    17	130.406693961
    18	130.408907684
    19	130.411399706
    20	130.408208162
    21	130.411469316
    22	130.407342302
    23	130.407768902
    24	130.405862565
    25	130.404640294
    26	130.408569341
    27	130.407227203
    28	130.401362307
    29	130.409257006
    30	130.404472611
    31	130.409789837
    32	130.40509626
    33	130.405251176
    34	130.401105413
    35	130.406452144
    36	130.406962899
    37	130.407191745
    38	130.407554096
    39	130.408063176
    40	130.404004211
    41	130.409795485
    42	130.406438767
    43	130.408199281
    44	130.409178607
    45	130.412484963
    46	130.407817752
    47	130.407905497
    48	130.40588167
    49	130.403848466
    50	130.406305556
    51	130.406210151
    52	130.410424292
    53	130.410284797
    54	130.407252766
    55	130.407884769
    56	130.403164959
    57	130.410235417
    58	130.409472165
    59	130.40818017
    60	130.408634944
    61	130.404706214
    62	130.409335009
    63	130.407099721
    64	130.406386881
    65	130.403266759
    66	130.407259947
    67	130.407858163
    68	130.408237323
    69	130.403165949
    70	130.406533722
    71	130.404006067
    72	130.414099789
    73	130.407165812
    74	130.407487939
    75	130.407661747
    76	130.403124643
    77	130.402967513
    78	130.405720694
    79	130.408370127
    80	130.402292941
    81	130.406353554

Measurement: loss
  step	100*(Pin_mean - Pout_mean)/Pin_mean
     1	0.539611564987
     2	0.541567258527
     3	0.543271562282
     4	0.544805410583
     5	0.546171345776
     6	0.548105042666
     7	0.550347630721
     8	0.550968473881
     9	0.552723028745
    10	0.554321584612
    11	0.556726163682
    12	0.557444672893
    13	0.559103380533
    14	0.560854370278
    15	0.563027408379
    16	0.563942208874
    17	0.566556466297
    18	0.567522861989
    19	0.570332210068
    20	0.571570920168
    21	0.573088813114
    22	0.57409583728
    23	0.575904190765
    24	0.578175513937
    25	0.579200622109
    26	0.580764975473
    27	0.581995160975
    28	0.584188400889
    29	0.586327601212
    30	0.58779516586
    31	0.590281385717
    32	0.590733589553
    33	0.592665756205
    34	0.593752279927
    35	0.596773240079
    36	0.598560114221
    37	0.599370371729
    38	0.601312720027
    39	0.60304422975
    40	0.603867866494
    41	0.606609680047
    42	0.609069201411
    43	0.610206653882
    44	0.611308172028
    45	0.612960859146
    46	0.614375278846
    47	0.616485620552
    48	0.618449242279
    49	0.6193526214
    50	0.622219784506
    51	0.623142745166
    52	0.625800049892
    53	0.627542324385
    54	0.628949416647
    55	0.630948625237
    56	0.632002596773
    57	0.633239037548
    58	0.636454345176
    59	0.637812468088
    60	0.640323860192
    61	0.641439985055
    62	0.643362690449
    63	0.644453318186
    64	0.646768326497
    65	0.647629247944
    66	0.64988628982
    67	0.653102547354
    68	0.654327041073
    69	0.654708770857
    70	0.656669588352
    71	0.659434036291
    72	0.661915373478
    73	0.663077855781
    74	0.664674837908
    75	0.666818549299
    76	0.667019683468
    77	0.670595149892
    78	0.672123233291
    79	0.673973570793
    80	0.675646579191
    81	0.677057962449
